! Generated by BlenderFDS 4.0.0 on Blender 2.76 (sub 0)
! Case: uni-build_s1
! Description: Faculty building, scenario 1, fire at floor 0
! Date: Fri, 15 Jan 2016, 17:05:57
! File: /home/egissi/Documenti/Argomenti/BlenderFDS/blenderfds/examples/uni-build/uni-build_4.blend

! --- Configuration

&HEAD CHID='uni-build_s1'
      TITLE='Faculty building, scenario 1, fire at floor 0'
      /
&TIME T_BEGIN=0.0
      T_END=1200.0
      /
&MISC FYI='Setting ambient temperature'
      TMPA=20.
      /
&REAC FUEL='NZ C-VM2 pre-fo'
      FYI='NZ C-VM2, Table 2.1, pre-flashover design fire'
      FORMULA='C2H4O1'
      CO_YIELD=0.040
      SOOT_YIELD=0.070
      HEAT_OF_COMBUSTION=20000.0
      /
! Output is dumped every 2.00 s
&DUMP RENDER_FILE='uni-build_s1.ge1'
      NFRAMES=600
      /

! --- Free text: 'HEAD free text (s1, s2)'

&MATL ID='Gypsum plaster', CONDUCTIVITY=0.48,
      SPECIFIC_HEAT=0.84, DENSITY=1440. /
      Thermo-physical properties of gypsum plaster.

&PROP ID='Acme smoke detector', QUANTITY='CHAMBER OBSCURATION',
      LENGTH=1.8, ACTIVATION_OBSCURATION=3.28 /
      
&ISOF QUANTITY='TEMPERATURE', VALUE(1)=60. /
&ISOF QUANTITY='VISIBILITY', VALUE(1)=10. /
&BNDF QUANTITY='ADIABATIC SURFACE TEMPERATURE' /

! --- Boundary conditions

! HRR(t) has a t² ramp
&SURF ID='Burner'
      FYI='Est.d area 12.00 m², HRR max 1000 kW, fast t² ramp (EN)'
      RGB=134,0,0
      HRRPUA=83.333
      TAU_Q=-150.0
      /
&SURF ID='Glass pane'
      RGB=0,204,201
      TRANSPARENCY=0.200
      /
&SURF ID='Gypsum wall'
      RGB=184,186,136
      MATL_ID='Gypsum plaster'
      THICKNESS=0.020
      /

! --- Geometric entities

! -- 00 Domain: This is the domain of simulation
! 580608 mesh cells of size 0.250x0.250x0.250 m
&MESH ID='Domain +1'
      IJK=84,128,54
      XB=10.500,31.500,-15.000,17.000,0.000,13.500
      /
! 580608 mesh cells of size 0.250x0.250x0.250 m
&MESH ID='Domain -1'
      IJK=84,128,54
      XB=-31.500,-10.500,-15.000,17.000,0.000,13.500
      /
! 580608 mesh cells of size 0.250x0.250x0.250 m
&MESH ID='Domain 0'
      IJK=84,128,54
      XB=-10.500,10.500,-15.000,17.000,0.000,13.500
      /
! 5 planes
&VENT ID='Domain bc_0'
      PBX=-31.500
      SURF_ID='OPEN'
      /
&VENT ID='Domain bc_1'
      PBX=31.500
      SURF_ID='OPEN'
      /
&VENT ID='Domain bc_2'
      PBY=-15.000
      SURF_ID='OPEN'
      /
&VENT ID='Domain bc_3'
      PBY=17.000
      SURF_ID='OPEN'
      /
&VENT ID='Domain bc_4'
      PBZ=13.500
      SURF_ID='OPEN'
      /
&VENT ID='Ground'
      SURF_ID='INERT'
      PBZ=0.000
      /
&OBST ID='01 Burner at f0'
      FYI='5 m2 on fire'
      SURF_ID='Burner'
      XB=6.500,7.500,-1.500,-0.500,0.000,1.000
      /
! -- 02 Building: 
! 10 voxels, resolution 0.099 m, in 0 s
&OBST ID='Back walls_0'
      XB=-2.129,2.128,15.324,15.423,3.078,4.464
      SURF_ID='Gypsum wall'
      /
&OBST ID='Back walls_1'
      XB=-2.129,2.128,15.324,15.423,7.533,8.523
      SURF_ID='Gypsum wall'
      /
&OBST ID='Back walls_2'
      XB=2.029,2.128,13.839,14.037,3.078,4.464
      SURF_ID='Gypsum wall'
      /
&OBST ID='Back walls_3'
      XB=-2.129,-2.030,13.839,14.037,3.078,4.464
      SURF_ID='Gypsum wall'
      /
&OBST ID='Back walls_4'
      XB=-2.129,-2.030,14.037,15.027,3.078,3.276
      SURF_ID='Gypsum wall'
      /
&OBST ID='Back walls_5'
      XB=2.029,2.128,15.027,15.324,3.078,4.464
      SURF_ID='Gypsum wall'
      /
&OBST ID='Back walls_6'
      XB=-2.129,-2.030,15.027,15.324,3.078,4.464
      SURF_ID='Gypsum wall'
      /
&OBST ID='Back walls_7'
      XB=-2.129,-2.030,13.839,15.324,7.533,8.523
      SURF_ID='Gypsum wall'
      /
&OBST ID='Back walls_8'
      XB=2.029,2.128,14.037,15.027,3.078,3.276
      SURF_ID='Gypsum wall'
      /
&OBST ID='Back walls_9'
      XB=2.029,2.128,13.839,15.324,7.533,8.523
      SURF_ID='Gypsum wall'
      /
! 98 voxels, resolution 0.100 m, in 0 s
&OBST ID='Columns_0'
      XB=9.750,10.250,-2.246,-1.346,0.010,2.710
      SURF_ID='Gypsum wall'
      /
&OBST ID='Columns_1'
      XB=9.750,10.250,-2.246,-1.346,4.410,7.110
      SURF_ID='Gypsum wall'
      /
&OBST ID='Columns_2'
      XB=4.750,5.250,1.354,2.254,0.010,2.710
      SURF_ID='Gypsum wall'
      /
&OBST ID='Columns_3'
      XB=4.750,5.250,1.354,2.254,4.410,7.110
      SURF_ID='Gypsum wall'
      /
&OBST ID='Columns_4'
      XB=9.750,10.250,1.354,2.254,0.010,2.710
      SURF_ID='Gypsum wall'
      /
&OBST ID='Columns_5'
      XB=9.750,10.250,1.354,2.254,4.410,7.110
      SURF_ID='Gypsum wall'
      /
&OBST ID='Columns_6'
      XB=-20.250,-19.750,1.354,2.254,0.010,2.710
      SURF_ID='Gypsum wall'
      /
&OBST ID='Columns_7'
      XB=-20.250,-19.750,1.354,2.254,4.410,7.110
      SURF_ID='Gypsum wall'
      /
&OBST ID='Columns_8'
      XB=-20.050,-19.750,-13.746,-13.346,0.010,3.110
      SURF_ID='Gypsum wall'
      /
&OBST ID='Columns_9'
      XB=-20.050,-19.750,-13.746,-13.346,4.410,7.510
      SURF_ID='Gypsum wall'
      /
&OBST ID='Columns_10'
      XB=-15.250,-14.750,1.354,2.254,0.010,2.710
      SURF_ID='Gypsum wall'
      /
&OBST ID='Columns_11'
      XB=-15.250,-14.750,1.354,2.254,4.410,7.110
      SURF_ID='Gypsum wall'
      /
&OBST ID='Columns_12'
      XB=-25.150,-24.850,-13.746,-13.346,0.010,3.110
      SURF_ID='Gypsum wall'
      /
&OBST ID='Columns_13'
      XB=-25.150,-24.850,-13.746,-13.346,4.410,7.510
      SURF_ID='Gypsum wall'
      /
&OBST ID='Columns_14'
      XB=4.750,5.250,-2.246,-1.346,0.010,2.710
      SURF_ID='Gypsum wall'
      /
&OBST ID='Columns_15'
      XB=4.750,5.250,-2.246,-1.346,4.410,7.110
      SURF_ID='Gypsum wall'
      /
&OBST ID='Columns_16'
      XB=14.750,15.250,1.354,2.254,0.010,2.710
      SURF_ID='Gypsum wall'
      /
&OBST ID='Columns_17'
      XB=14.750,15.250,1.354,2.254,4.410,7.110
      SURF_ID='Gypsum wall'
      /
&OBST ID='Columns_18'
      XB=-10.250,-9.750,1.354,2.254,0.010,2.710
      SURF_ID='Gypsum wall'
      /
&OBST ID='Columns_19'
      XB=-10.250,-9.750,1.354,2.254,4.410,7.110
      SURF_ID='Gypsum wall'
      /
&OBST ID='Columns_20'
      XB=-5.150,-4.850,-13.746,-13.346,0.010,3.110
      SURF_ID='Gypsum wall'
      /
&OBST ID='Columns_21'
      XB=-5.150,-4.850,-13.746,-13.346,4.410,7.510
      SURF_ID='Gypsum wall'
      /
&OBST ID='Columns_22'
      XB=-5.250,-4.750,1.354,2.254,0.010,2.710
      SURF_ID='Gypsum wall'
      /
&OBST ID='Columns_23'
      XB=-5.250,-4.750,1.354,2.254,4.410,7.110
      SURF_ID='Gypsum wall'
      /
&OBST ID='Columns_24'
      XB=-25.250,-24.750,1.354,2.254,4.410,7.110
      SURF_ID='Gypsum wall'
      /
&OBST ID='Columns_25'
      XB=19.750,20.150,1.354,2.254,0.010,2.710
      SURF_ID='Gypsum wall'
      /
&OBST ID='Columns_26'
      XB=19.750,20.150,1.354,2.254,4.410,7.110
      SURF_ID='Gypsum wall'
      /
&OBST ID='Columns_27'
      XB=-30.150,-29.850,-13.746,-13.346,0.010,3.110
      SURF_ID='Gypsum wall'
      /
&OBST ID='Columns_28'
      XB=-30.150,-29.850,-13.746,-13.346,4.410,7.510
      SURF_ID='Gypsum wall'
      /
&OBST ID='Columns_29'
      XB=-15.250,-14.750,-2.246,-1.346,0.010,2.710
      SURF_ID='Gypsum wall'
      /
&OBST ID='Columns_30'
      XB=-15.250,-14.750,-2.246,-1.346,4.410,7.110
      SURF_ID='Gypsum wall'
      /
&OBST ID='Columns_31'
      XB=-20.250,-19.750,-2.246,-1.346,0.010,2.710
      SURF_ID='Gypsum wall'
      /
&OBST ID='Columns_32'
      XB=-20.250,-19.750,-2.246,-1.346,4.410,7.110
      SURF_ID='Gypsum wall'
      /
&OBST ID='Columns_33'
      XB=-15.150,-14.850,-13.746,-13.346,0.010,3.110
      SURF_ID='Gypsum wall'
      /
&OBST ID='Columns_34'
      XB=-15.150,-14.850,-13.746,-13.346,4.410,7.510
      SURF_ID='Gypsum wall'
      /
&OBST ID='Columns_35'
      XB=-10.250,-9.750,-2.246,-1.346,0.010,2.710
      SURF_ID='Gypsum wall'
      /
&OBST ID='Columns_36'
      XB=-10.250,-9.750,-2.246,-1.346,4.410,7.110
      SURF_ID='Gypsum wall'
      /
&OBST ID='Columns_37'
      XB=-5.250,-4.950,13.354,13.654,0.010,3.110
      SURF_ID='Gypsum wall'
      /
&OBST ID='Columns_38'
      XB=-5.250,-4.950,13.354,13.654,4.410,7.510
      SURF_ID='Gypsum wall'
      /
&OBST ID='Columns_39'
      XB=-25.250,-24.750,-2.246,-1.346,4.410,7.110
      SURF_ID='Gypsum wall'
      /
&OBST ID='Columns_40'
      XB=14.750,15.250,-2.246,-1.346,0.010,2.710
      SURF_ID='Gypsum wall'
      /
&OBST ID='Columns_41'
      XB=14.750,15.250,-2.246,-1.346,4.410,7.110
      SURF_ID='Gypsum wall'
      /
&OBST ID='Columns_42'
      XB=4.950,5.250,13.354,13.654,0.010,3.110
      SURF_ID='Gypsum wall'
      /
&OBST ID='Columns_43'
      XB=4.950,5.250,13.354,13.654,4.410,7.510
      SURF_ID='Gypsum wall'
      /
&OBST ID='Columns_44'
      XB=4.850,5.150,-13.746,-13.346,0.010,3.110
      SURF_ID='Gypsum wall'
      /
&OBST ID='Columns_45'
      XB=4.850,5.150,-13.746,-13.346,4.410,7.510
      SURF_ID='Gypsum wall'
      /
&OBST ID='Columns_46'
      XB=24.850,25.150,1.354,1.654,0.010,3.110
      SURF_ID='Gypsum wall'
      /
&OBST ID='Columns_47'
      XB=24.750,25.250,-2.246,-1.346,4.410,7.110
      SURF_ID='Gypsum wall'
      /
&OBST ID='Columns_48'
      XB=-20.050,-19.750,13.354,13.654,0.010,3.110
      SURF_ID='Gypsum wall'
      /
&OBST ID='Columns_49'
      XB=-20.050,-19.750,13.354,13.654,4.410,7.510
      SURF_ID='Gypsum wall'
      /
&OBST ID='Columns_50'
      XB=24.750,25.250,1.354,2.254,4.410,7.110
      SURF_ID='Gypsum wall'
      /
&OBST ID='Columns_51'
      XB=-30.150,-29.850,13.354,13.654,0.010,3.110
      SURF_ID='Gypsum wall'
      /
&OBST ID='Columns_52'
      XB=-30.150,-29.850,13.354,13.654,4.410,7.510
      SURF_ID='Gypsum wall'
      /
&OBST ID='Columns_53'
      XB=-5.250,-4.750,-2.246,-1.346,0.010,2.710
      SURF_ID='Gypsum wall'
      /
&OBST ID='Columns_54'
      XB=-5.250,-4.750,-2.246,-1.346,4.410,7.110
      SURF_ID='Gypsum wall'
      /
&OBST ID='Columns_55'
      XB=29.850,30.150,1.354,1.654,0.010,3.110
      SURF_ID='Gypsum wall'
      /
&OBST ID='Columns_56'
      XB=29.850,30.150,1.354,1.654,4.410,7.510
      SURF_ID='Gypsum wall'
      /
&OBST ID='Columns_57'
      XB=19.750,20.150,-2.246,-1.346,0.010,2.710
      SURF_ID='Gypsum wall'
      /
&OBST ID='Columns_58'
      XB=19.750,20.150,-2.246,-1.346,4.410,7.110
      SURF_ID='Gypsum wall'
      /
&OBST ID='Columns_59'
      XB=-2.250,-2.050,13.354,13.654,0.010,3.110
      SURF_ID='Gypsum wall'
      /
&OBST ID='Columns_60'
      XB=-2.250,-2.050,13.354,13.654,4.410,7.510
      SURF_ID='Gypsum wall'
      /
&OBST ID='Columns_61'
      XB=9.850,10.150,-13.746,-13.346,0.010,3.110
      SURF_ID='Gypsum wall'
      /
&OBST ID='Columns_62'
      XB=9.850,10.150,-13.746,-13.346,4.410,7.510
      SURF_ID='Gypsum wall'
      /
&OBST ID='Columns_63'
      XB=24.850,25.150,-13.746,-13.346,0.010,3.110
      SURF_ID='Gypsum wall'
      /
&OBST ID='Columns_64'
      XB=24.850,25.150,-13.746,-13.346,4.410,7.510
      SURF_ID='Gypsum wall'
      /
&OBST ID='Columns_65'
      XB=-15.150,-14.850,13.354,13.654,0.010,3.110
      SURF_ID='Gypsum wall'
      /
&OBST ID='Columns_66'
      XB=-15.150,-14.850,13.354,13.654,4.410,7.510
      SURF_ID='Gypsum wall'
      /
&OBST ID='Columns_67'
      XB=29.850,30.150,13.354,13.654,0.010,3.110
      SURF_ID='Gypsum wall'
      /
&OBST ID='Columns_68'
      XB=29.850,30.150,13.354,13.654,4.410,7.510
      SURF_ID='Gypsum wall'
      /
&OBST ID='Columns_69'
      XB=29.850,30.150,-13.746,-13.346,0.010,3.110
      SURF_ID='Gypsum wall'
      /
&OBST ID='Columns_70'
      XB=29.850,30.150,-13.746,-13.346,4.410,7.510
      SURF_ID='Gypsum wall'
      /
&OBST ID='Columns_71'
      XB=-10.150,-9.850,-13.746,-13.346,0.010,3.110
      SURF_ID='Gypsum wall'
      /
&OBST ID='Columns_72'
      XB=-10.150,-9.850,-13.746,-13.346,4.410,7.510
      SURF_ID='Gypsum wall'
      /
&OBST ID='Columns_73'
      XB=14.850,15.150,13.354,13.654,0.010,3.110
      SURF_ID='Gypsum wall'
      /
&OBST ID='Columns_74'
      XB=14.850,15.150,13.354,13.654,4.410,7.510
      SURF_ID='Gypsum wall'
      /
&OBST ID='Columns_75'
      XB=14.850,15.150,-13.746,-13.346,0.010,3.110
      SURF_ID='Gypsum wall'
      /
&OBST ID='Columns_76'
      XB=14.850,15.150,-13.746,-13.346,4.410,7.510
      SURF_ID='Gypsum wall'
      /
&OBST ID='Columns_77'
      XB=-25.150,-24.850,13.354,13.654,0.010,3.110
      SURF_ID='Gypsum wall'
      /
&OBST ID='Columns_78'
      XB=-25.150,-24.850,13.354,13.654,4.410,7.510
      SURF_ID='Gypsum wall'
      /
&OBST ID='Columns_79'
      XB=24.850,25.150,-1.646,-1.346,0.010,3.110
      SURF_ID='Gypsum wall'
      /
&OBST ID='Columns_80'
      XB=19.850,20.150,-13.746,-13.346,0.010,3.110
      SURF_ID='Gypsum wall'
      /
&OBST ID='Columns_81'
      XB=19.850,20.150,-13.746,-13.346,4.410,7.510
      SURF_ID='Gypsum wall'
      /
&OBST ID='Columns_82'
      XB=-25.150,-24.850,-1.646,-1.346,0.010,3.110
      SURF_ID='Gypsum wall'
      /
&OBST ID='Columns_83'
      XB=-30.150,-29.850,1.354,1.654,0.010,3.110
      SURF_ID='Gypsum wall'
      /
&OBST ID='Columns_84'
      XB=2.050,2.250,13.354,13.654,0.010,3.110
      SURF_ID='Gypsum wall'
      /
&OBST ID='Columns_85'
      XB=2.050,2.250,13.354,13.654,4.410,7.510
      SURF_ID='Gypsum wall'
      /
&OBST ID='Columns_86'
      XB=-30.150,-29.850,-1.646,-1.346,0.010,3.110
      SURF_ID='Gypsum wall'
      /
&OBST ID='Columns_87'
      XB=-10.150,-9.850,13.354,13.654,0.010,3.110
      SURF_ID='Gypsum wall'
      /
&OBST ID='Columns_88'
      XB=-10.150,-9.850,13.354,13.654,4.410,7.510
      SURF_ID='Gypsum wall'
      /
&OBST ID='Columns_89'
      XB=29.850,30.150,-1.646,-1.346,0.010,3.110
      SURF_ID='Gypsum wall'
      /
&OBST ID='Columns_90'
      XB=29.850,30.150,-1.646,-1.346,4.410,7.510
      SURF_ID='Gypsum wall'
      /
&OBST ID='Columns_91'
      XB=19.850,20.150,13.354,13.654,0.010,3.110
      SURF_ID='Gypsum wall'
      /
&OBST ID='Columns_92'
      XB=19.850,20.150,13.354,13.654,4.410,7.510
      SURF_ID='Gypsum wall'
      /
&OBST ID='Columns_93'
      XB=9.850,10.150,13.354,13.654,0.010,3.110
      SURF_ID='Gypsum wall'
      /
&OBST ID='Columns_94'
      XB=9.850,10.150,13.354,13.654,4.410,7.510
      SURF_ID='Gypsum wall'
      /
&OBST ID='Columns_95'
      XB=-25.150,-24.850,1.354,1.654,0.010,3.110
      SURF_ID='Gypsum wall'
      /
&OBST ID='Columns_96'
      XB=24.850,25.150,13.354,13.654,0.010,3.110
      SURF_ID='Gypsum wall'
      /
&OBST ID='Columns_97'
      XB=24.850,25.150,13.354,13.654,4.410,7.510
      SURF_ID='Gypsum wall'
      /
! 89 voxels, resolution 0.100 m, in 0 s
&OBST ID='External stairs_0'
      XB=-34.893,-32.193,6.538,6.638,2.060,2.160
      SURF_ID='Gypsum wall'
      /
&OBST ID='External stairs_1'
      XB=-35.493,-33.693,2.938,3.238,0.960,1.060
      SURF_ID='Gypsum wall'
      /
&OBST ID='External stairs_2'
      XB=-33.393,-30.293,0.038,1.038,4.360,4.460
      SURF_ID='Gypsum wall'
      /
&OBST ID='External stairs_3'
      XB=30.307,34.007,0.038,0.938,4.360,4.460
      SURF_ID='Gypsum wall'
      /
&OBST ID='External stairs_4'
      XB=-32.693,-30.293,-0.662,-0.562,4.360,4.460
      SURF_ID='Gypsum wall'
      /
&OBST ID='External stairs_5'
      XB=30.307,33.307,-0.662,-0.562,4.360,4.460
      SURF_ID='Gypsum wall'
      /
&OBST ID='External stairs_6'
      XB=32.207,34.007,8.038,8.338,0.960,1.060
      SURF_ID='Gypsum wall'
      /
&OBST ID='External stairs_7'
      XB=-33.393,-31.593,1.838,2.138,3.860,3.960
      SURF_ID='Gypsum wall'
      /
&OBST ID='External stairs_8'
      XB=32.207,34.007,1.838,2.138,3.860,3.960
      SURF_ID='Gypsum wall'
      /
&OBST ID='External stairs_9'
      XB=-33.393,-31.593,2.138,2.438,3.660,3.760
      SURF_ID='Gypsum wall'
      /
&OBST ID='External stairs_10'
      XB=32.207,34.007,2.138,2.438,3.660,3.760
      SURF_ID='Gypsum wall'
      /
&OBST ID='External stairs_11'
      XB=-35.493,-31.593,5.238,6.038,2.060,2.160
      SURF_ID='Gypsum wall'
      /
&OBST ID='External stairs_12'
      XB=-35.493,-33.693,4.038,4.338,1.560,1.660
      SURF_ID='Gypsum wall'
      /
&OBST ID='External stairs_13'
      XB=-33.393,-31.593,4.338,4.638,2.360,2.460
      SURF_ID='Gypsum wall'
      /
&OBST ID='External stairs_14'
      XB=32.207,34.007,4.338,4.638,2.360,2.460
      SURF_ID='Gypsum wall'
      /
&OBST ID='External stairs_15'
      XB=32.207,34.007,4.638,5.938,2.260,2.360
      SURF_ID='Gypsum wall'
      /
&OBST ID='External stairs_16'
      XB=-35.493,-33.693,1.838,2.138,0.360,0.460
      SURF_ID='Gypsum wall'
      /
&OBST ID='External stairs_17'
      XB=32.207,34.007,8.638,8.938,0.660,0.760
      SURF_ID='Gypsum wall'
      /
&OBST ID='External stairs_18'
      XB=32.207,34.007,9.838,10.138,-0.040,0.060
      SURF_ID='Gypsum wall'
      /
&OBST ID='External stairs_19'
      XB=32.207,34.007,8.938,9.238,0.460,0.560
      SURF_ID='Gypsum wall'
      /
&OBST ID='External stairs_20'
      XB=-33.393,-31.593,4.038,4.338,2.560,2.660
      SURF_ID='Gypsum wall'
      /
&OBST ID='External stairs_21'
      XB=32.207,34.007,4.038,4.338,2.560,2.660
      SURF_ID='Gypsum wall'
      /
&OBST ID='External stairs_22'
      XB=-35.493,-33.693,3.538,3.838,1.260,1.360
      SURF_ID='Gypsum wall'
      /
&OBST ID='External stairs_23'
      XB=-35.493,-33.693,4.938,5.238,2.060,2.160
      SURF_ID='Gypsum wall'
      /
&OBST ID='External stairs_24'
      XB=-33.393,-31.593,4.938,5.238,2.060,2.160
      SURF_ID='Gypsum wall'
      /
&OBST ID='External stairs_25'
      XB=-35.493,-33.693,4.638,4.938,1.960,2.060
      SURF_ID='Gypsum wall'
      /
&OBST ID='External stairs_26'
      XB=32.207,34.007,6.538,6.838,1.760,1.860
      SURF_ID='Gypsum wall'
      /
&OBST ID='External stairs_27'
      XB=-33.293,-30.293,-0.062,0.038,4.360,4.460
      SURF_ID='Gypsum wall'
      /
&OBST ID='External stairs_28'
      XB=30.307,33.907,-0.062,0.038,4.360,4.460
      SURF_ID='Gypsum wall'
      /
&OBST ID='External stairs_29'
      XB=32.207,34.007,5.938,6.238,2.060,2.160
      SURF_ID='Gypsum wall'
      /
&OBST ID='External stairs_30'
      XB=-35.493,-33.693,4.338,4.638,1.760,1.860
      SURF_ID='Gypsum wall'
      /
&OBST ID='External stairs_31'
      XB=-33.393,-31.593,2.638,2.938,3.360,3.460
      SURF_ID='Gypsum wall'
      /
&OBST ID='External stairs_32'
      XB=32.207,34.007,2.638,2.938,3.360,3.460
      SURF_ID='Gypsum wall'
      /
&OBST ID='External stairs_33'
      XB=-33.393,-31.593,4.638,4.938,2.260,2.360
      SURF_ID='Gypsum wall'
      /
&OBST ID='External stairs_34'
      XB=32.207,34.007,7.438,7.738,1.260,1.360
      SURF_ID='Gypsum wall'
      /
&OBST ID='External stairs_35'
      XB=32.207,34.007,7.138,7.438,1.460,1.560
      SURF_ID='Gypsum wall'
      /
&OBST ID='External stairs_36'
      XB=-35.293,-31.793,6.138,6.238,2.060,2.160
      SURF_ID='Gypsum wall'
      /
&OBST ID='External stairs_37'
      XB=-35.493,-33.693,2.638,2.938,0.760,0.860
      SURF_ID='Gypsum wall'
      /
&OBST ID='External stairs_38'
      XB=-33.393,-31.593,2.338,2.638,3.560,3.660
      SURF_ID='Gypsum wall'
      /
&OBST ID='External stairs_39'
      XB=32.207,34.007,2.338,2.638,3.560,3.660
      SURF_ID='Gypsum wall'
      /
&OBST ID='External stairs_40'
      XB=-33.193,-30.293,-0.162,-0.062,4.360,4.460
      SURF_ID='Gypsum wall'
      /
&OBST ID='External stairs_41'
      XB=30.307,33.807,-0.162,-0.062,4.360,4.460
      SURF_ID='Gypsum wall'
      /
&OBST ID='External stairs_42'
      XB=-34.493,-32.593,6.938,7.038,2.060,2.160
      SURF_ID='Gypsum wall'
      /
&OBST ID='External stairs_43'
      XB=-35.493,-33.693,2.138,2.438,0.460,0.560
      SURF_ID='Gypsum wall'
      /
&OBST ID='External stairs_44'
      XB=-35.493,-33.693,1.538,1.838,0.160,0.260
      SURF_ID='Gypsum wall'
      /
&OBST ID='External stairs_45'
      XB=-32.493,-30.293,-0.862,-0.762,4.360,4.460
      SURF_ID='Gypsum wall'
      /
&OBST ID='External stairs_46'
      XB=30.307,33.107,-0.862,-0.762,4.360,4.460
      SURF_ID='Gypsum wall'
      /
&OBST ID='External stairs_47'
      XB=-33.393,-31.593,1.538,1.838,3.960,4.060
      SURF_ID='Gypsum wall'
      /
&OBST ID='External stairs_48'
      XB=32.207,34.007,1.538,1.838,3.960,4.060
      SURF_ID='Gypsum wall'
      /
&OBST ID='External stairs_49'
      XB=-33.393,-31.593,3.538,3.838,2.860,2.960
      SURF_ID='Gypsum wall'
      /
&OBST ID='External stairs_50'
      XB=32.207,34.007,3.538,3.838,2.860,2.960
      SURF_ID='Gypsum wall'
      /
&OBST ID='External stairs_51'
      XB=-33.393,-31.593,3.238,3.538,3.060,3.160
      SURF_ID='Gypsum wall'
      /
&OBST ID='External stairs_52'
      XB=32.207,34.007,3.238,3.538,3.060,3.160
      SURF_ID='Gypsum wall'
      /
&OBST ID='External stairs_53'
      XB=-34.693,-32.393,6.738,6.838,2.060,2.160
      SURF_ID='Gypsum wall'
      /
&OBST ID='External stairs_54'
      XB=32.207,34.007,9.238,9.538,0.360,0.460
      SURF_ID='Gypsum wall'
      /
&OBST ID='External stairs_55'
      XB=-33.093,-30.293,-0.262,-0.162,4.360,4.460
      SURF_ID='Gypsum wall'
      /
&OBST ID='External stairs_56'
      XB=30.307,33.707,-0.262,-0.162,4.360,4.460
      SURF_ID='Gypsum wall'
      /
&OBST ID='External stairs_57'
      XB=-33.393,-31.593,1.238,1.538,4.160,4.260
      SURF_ID='Gypsum wall'
      /
&OBST ID='External stairs_58'
      XB=32.207,34.007,1.238,1.538,4.160,4.260
      SURF_ID='Gypsum wall'
      /
&OBST ID='External stairs_59'
      XB=-34.593,-32.493,6.838,6.938,2.060,2.160
      SURF_ID='Gypsum wall'
      /
&OBST ID='External stairs_60'
      XB=-35.493,-33.693,3.238,3.538,1.160,1.260
      SURF_ID='Gypsum wall'
      /
&OBST ID='External stairs_61'
      XB=32.207,34.007,8.338,8.638,0.760,0.860
      SURF_ID='Gypsum wall'
      /
&OBST ID='External stairs_62'
      XB=-32.393,-30.293,-0.962,-0.862,4.360,4.460
      SURF_ID='Gypsum wall'
      /
&OBST ID='External stairs_63'
      XB=30.307,33.007,-0.962,-0.862,4.360,4.460
      SURF_ID='Gypsum wall'
      /
&OBST ID='External stairs_64'
      XB=-33.393,-31.593,3.738,4.038,2.760,2.860
      SURF_ID='Gypsum wall'
      /
&OBST ID='External stairs_65'
      XB=32.207,34.007,3.738,4.038,2.760,2.860
      SURF_ID='Gypsum wall'
      /
&OBST ID='External stairs_66'
      XB=32.207,34.007,6.838,7.138,1.560,1.660
      SURF_ID='Gypsum wall'
      /
&OBST ID='External stairs_67'
      XB=-35.493,-33.693,3.738,4.038,1.460,1.560
      SURF_ID='Gypsum wall'
      /
&OBST ID='External stairs_68'
      XB=32.207,34.007,6.238,6.538,1.960,2.060
      SURF_ID='Gypsum wall'
      /
&OBST ID='External stairs_69'
      XB=-32.993,-30.293,-0.362,-0.262,4.360,4.460
      SURF_ID='Gypsum wall'
      /
&OBST ID='External stairs_70'
      XB=30.307,33.607,-0.362,-0.262,4.360,4.460
      SURF_ID='Gypsum wall'
      /
&OBST ID='External stairs_71'
      XB=-35.493,-33.693,2.338,2.638,0.660,0.760
      SURF_ID='Gypsum wall'
      /
&OBST ID='External stairs_72'
      XB=32.207,34.007,9.538,9.838,0.160,0.260
      SURF_ID='Gypsum wall'
      /
&OBST ID='External stairs_73'
      XB=-32.593,-30.293,-0.762,-0.662,4.360,4.460
      SURF_ID='Gypsum wall'
      /
&OBST ID='External stairs_74'
      XB=30.307,33.207,-0.762,-0.662,4.360,4.460
      SURF_ID='Gypsum wall'
      /
&OBST ID='External stairs_75'
      XB=-35.193,-31.893,6.238,6.338,2.060,2.160
      SURF_ID='Gypsum wall'
      /
&OBST ID='External stairs_76'
      XB=-33.393,-31.593,2.938,3.238,3.160,3.260
      SURF_ID='Gypsum wall'
      /
&OBST ID='External stairs_77'
      XB=32.207,34.007,2.938,3.238,3.160,3.260
      SURF_ID='Gypsum wall'
      /
&OBST ID='External stairs_78'
      XB=32.207,34.007,0.938,1.238,4.360,4.460
      SURF_ID='Gypsum wall'
      /
&OBST ID='External stairs_79'
      XB=-32.893,-30.293,-0.462,-0.362,4.360,4.460
      SURF_ID='Gypsum wall'
      /
&OBST ID='External stairs_80'
      XB=30.307,33.507,-0.462,-0.362,4.360,4.460
      SURF_ID='Gypsum wall'
      /
&OBST ID='External stairs_81'
      XB=32.207,34.007,7.738,8.038,1.160,1.260
      SURF_ID='Gypsum wall'
      /
&OBST ID='External stairs_82'
      XB=-34.793,-32.293,6.638,6.738,2.060,2.160
      SURF_ID='Gypsum wall'
      /
&OBST ID='External stairs_83'
      XB=-32.793,-30.293,-0.562,-0.462,4.360,4.460
      SURF_ID='Gypsum wall'
      /
&OBST ID='External stairs_84'
      XB=30.307,33.407,-0.562,-0.462,4.360,4.460
      SURF_ID='Gypsum wall'
      /
&OBST ID='External stairs_85'
      XB=-35.093,-31.993,6.338,6.438,2.060,2.160
      SURF_ID='Gypsum wall'
      /
&OBST ID='External stairs_86'
      XB=-35.393,-31.693,6.038,6.138,2.060,2.160
      SURF_ID='Gypsum wall'
      /
&OBST ID='External stairs_87'
      XB=-34.993,-32.093,6.438,6.538,2.060,2.160
      SURF_ID='Gypsum wall'
      /
&OBST ID='External stairs_88'
      XB=-33.393,-31.593,1.038,1.238,4.360,4.460
      SURF_ID='Gypsum wall'
      /
! 100 voxels, resolution 0.099 m, in 0 s
&OBST ID='Internal stairs_0'
      XB=-1.931,-0.149,11.334,11.928,7.072,7.171
      SURF_ID='Gypsum wall'
      /
&OBST ID='Internal stairs_1'
      XB=-1.931,-0.149,10.839,11.334,3.508,3.607
      SURF_ID='Gypsum wall'
      /
&OBST ID='Internal stairs_2'
      XB=-1.931,-0.149,12.423,12.819,6.478,6.577
      SURF_ID='Gypsum wall'
      /
&OBST ID='Internal stairs_3'
      XB=-1.931,-0.149,11.037,11.334,7.270,7.369
      SURF_ID='Gypsum wall'
      /
&OBST ID='Internal stairs_4'
      XB=-1.931,-0.149,9.354,9.948,8.260,8.359
      SURF_ID='Gypsum wall'
      /
&OBST ID='Internal stairs_5'
      XB=-1.931,-0.149,9.750,10.146,4.102,4.201
      SURF_ID='Gypsum wall'
      /
&OBST ID='Internal stairs_6'
      XB=0.148,1.930,12.225,12.819,1.627,1.726
      SURF_ID='Gypsum wall'
      /
&OBST ID='Internal stairs_7'
      XB=-2.030,2.029,13.809,15.294,6.280,6.478
      SURF_ID='Gypsum wall'
      /
&OBST ID='Internal stairs_8'
      XB=-1.931,-0.149,11.136,11.631,3.310,3.409
      SURF_ID='Gypsum wall'
      /
&OBST ID='Internal stairs_9'
      XB=0.148,1.930,12.225,12.819,5.884,5.983
      SURF_ID='Gypsum wall'
      /
&OBST ID='Internal stairs_10'
      XB=-1.931,-0.149,12.126,12.522,2.716,2.815
      SURF_ID='Gypsum wall'
      /
&OBST ID='Internal stairs_11'
      XB=0.148,1.930,10.245,10.641,0.340,0.439
      SURF_ID='Gypsum wall'
      /
&OBST ID='Internal stairs_12'
      XB=-2.030,2.029,13.809,15.294,2.023,2.221
      SURF_ID='Gypsum wall'
      /
&OBST ID='Internal stairs_13'
      XB=0.148,1.930,11.136,11.631,5.191,5.290
      SURF_ID='Gypsum wall'
      /
&OBST ID='Internal stairs_14'
      XB=0.148,1.930,11.136,11.631,0.934,1.033
      SURF_ID='Gypsum wall'
      /
&OBST ID='Internal stairs_15'
      XB=0.148,1.930,11.730,12.126,1.231,1.330
      SURF_ID='Gypsum wall'
      /
&OBST ID='Internal stairs_16'
      XB=0.148,1.930,10.245,10.740,0.439,0.538
      SURF_ID='Gypsum wall'
      /
&OBST ID='Internal stairs_17'
      XB=-1.931,-0.149,9.255,9.651,8.359,8.458
      SURF_ID='Gypsum wall'
      /
&OBST ID='Internal stairs_18'
      XB=0.148,1.930,9.651,9.948,4.201,4.300
      SURF_ID='Gypsum wall'
      /
&OBST ID='Internal stairs_19'
      XB=0.148,1.930,12.819,13.116,1.825,1.924
      SURF_ID='Gypsum wall'
      /
&OBST ID='Internal stairs_20'
      XB=-1.931,1.930,7.869,9.651,4.300,4.399
      SURF_ID='Gypsum wall'
      /
&OBST ID='Internal stairs_21'
      XB=0.148,1.930,12.522,13.017,1.726,1.825
      SURF_ID='Gypsum wall'
      /
&OBST ID='Internal stairs_22'
      XB=0.148,1.930,11.433,11.928,5.389,5.488
      SURF_ID='Gypsum wall'
      /
&OBST ID='Internal stairs_23'
      XB=-1.931,1.930,7.869,8.760,4.201,4.300
      SURF_ID='Gypsum wall'
      /
&OBST ID='Internal stairs_24'
      XB=-1.931,-0.149,10.245,10.740,7.765,7.864
      SURF_ID='Gypsum wall'
      /
&OBST ID='Internal stairs_25'
      XB=0.148,1.930,10.839,11.136,0.637,0.736
      SURF_ID='Gypsum wall'
      /
&OBST ID='Internal stairs_26'
      XB=0.148,1.930,12.819,13.314,1.924,2.023
      SURF_ID='Gypsum wall'
      /
&OBST ID='Internal stairs_27'
      XB=0.148,1.930,10.839,11.334,0.736,0.835
      SURF_ID='Gypsum wall'
      /
&OBST ID='Internal stairs_28'
      XB=-1.931,-0.149,13.017,13.413,2.221,2.320
      SURF_ID='Gypsum wall'
      /
&OBST ID='Internal stairs_29'
      XB=-1.931,-0.149,11.829,12.225,2.914,3.013
      SURF_ID='Gypsum wall'
      /
&OBST ID='Internal stairs_30'
      XB=-1.931,-0.149,9.948,10.443,4.003,4.102
      SURF_ID='Gypsum wall'
      /
&OBST ID='Internal stairs_31'
      XB=0.148,1.930,9.948,10.443,4.498,4.597
      SURF_ID='Gypsum wall'
      /
&OBST ID='Internal stairs_32'
      XB=0.148,1.930,9.948,10.245,4.399,4.498
      SURF_ID='Gypsum wall'
      /
&OBST ID='Internal stairs_33'
      XB=0.148,1.930,9.651,10.146,4.300,4.399
      SURF_ID='Gypsum wall'
      /
&OBST ID='Internal stairs_34'
      XB=-1.931,-0.149,12.819,13.413,2.320,2.419
      SURF_ID='Gypsum wall'
      /
&OBST ID='Internal stairs_35'
      XB=-1.931,-0.149,12.621,13.116,2.419,2.518
      SURF_ID='Gypsum wall'
      /
&OBST ID='Internal stairs_36'
      XB=-1.931,-0.149,12.027,12.522,6.676,6.775
      SURF_ID='Gypsum wall'
      /
&OBST ID='Internal stairs_37'
      XB=-1.931,-0.149,12.324,12.819,2.617,2.716
      SURF_ID='Gypsum wall'
      /
&OBST ID='Internal stairs_38'
      XB=0.148,1.930,9.948,10.245,0.142,0.241
      SURF_ID='Gypsum wall'
      /
&OBST ID='Internal stairs_39'
      XB=-1.931,-0.149,10.839,11.334,7.369,7.468
      SURF_ID='Gypsum wall'
      /
&OBST ID='Internal stairs_40'
      XB=-1.931,-0.149,12.522,12.819,2.518,2.617
      SURF_ID='Gypsum wall'
      /
&OBST ID='Internal stairs_41'
      XB=-1.931,-0.149,11.928,12.225,6.775,6.874
      SURF_ID='Gypsum wall'
      /
&OBST ID='Internal stairs_42'
      XB=-1.931,-0.149,11.433,11.928,3.112,3.211
      SURF_ID='Gypsum wall'
      /
&OBST ID='Internal stairs_43'
      XB=0.148,1.930,10.542,10.938,0.538,0.637
      SURF_ID='Gypsum wall'
      /
&OBST ID='Internal stairs_44'
      XB=-1.931,-0.149,9.552,9.948,8.161,8.260
      SURF_ID='Gypsum wall'
      /
&OBST ID='Internal stairs_45'
      XB=-1.931,-0.149,9.651,10.146,8.062,8.161
      SURF_ID='Gypsum wall'
      /
&OBST ID='Internal stairs_46'
      XB=0.148,1.930,11.433,11.928,1.132,1.231
      SURF_ID='Gypsum wall'
      /