! Generated by BlenderFDS 4.0.1 on Blender 2.76 (sub 0)
! Case: uni-build_s1 (from Blender Scene)
! Description: Faculty building, scenario 1, fire at floor 0
! Date: Tue, 09 Feb 2016, 22:51:26
! File: /home/egissi/Documenti/Argomenti/BlenderFDS/git/blenderfds/examples/uni-build/uni-build.blend

&HEAD CHID='uni-build_s1'
      TITLE='Faculty building, scenario 1, fire at floor 0'
      /
&TIME T_END=0.
      /
&MISC FYI='Setting ambient temperature'
      TMPA=20.
      /
&REAC FUEL='NZ C-VM2 pre-fo'
      FYI='NZ C-VM2, Table 2.1, pre-flashover design fire'
      FORMULA='C2H4O1'
      CO_YIELD=0.040
      SOOT_YIELD=0.070
      HEAT_OF_COMBUSTION=20000.0
      /
! Output is dumped every 2.00 s
&DUMP RENDER_FILE='uni-build_s1.ge1'
      NFRAMES=600
      /

! --- Free text: 'HEAD free text (s1, s2)'

&MATL ID='Gypsum plaster', CONDUCTIVITY=0.48,
      SPECIFIC_HEAT=0.84, DENSITY=1440. /
      Thermo-physical properties of gypsum plaster.

&PROP ID='Acme smoke detector', QUANTITY='CHAMBER OBSCURATION',
      LENGTH=1.8, ACTIVATION_OBSCURATION=3.28 /
      
&ISOF QUANTITY='TEMPERATURE', VALUE(1)=60. /
&ISOF QUANTITY='VISIBILITY', VALUE(1)=10. /
&BNDF QUANTITY='ADIABATIC SURFACE TEMPERATURE' /

! --- Boundary conditions (from Blender Materials)

! HRR(t) has a t² ramp
&SURF ID='Burner'
      FYI='Est.d area 5.00 m², HRR max 2000 kW, fast t² ramp (EN)'
      RGB=134,0,0
      HRRPUA=400.000
      TAU_Q=-212.1
      /
&SURF ID='Glass pane'
      RGB=0,204,201
      TRANSPARENCY=0.200
      /
&SURF ID='Gypsum wall'
      RGB=110,111,82
      MATL_ID='Gypsum plaster'
      THICKNESS=0.020
      /

! --- Geometric entities (from Blender Objects)

! -- 00 Domain: This is the domain of simulation
! 1701000 mesh cells of size 0.250x0.250x0.250 m
&MESH ID='Domain'
      IJK=252,125,54
      XB=-31.500,31.500,-14.750,16.500,0.000,13.500
      /
! 5 planes
&VENT ID='Domain bc_0'
      PBX=-31.500
      SURF_ID='OPEN'
      /
&VENT ID='Domain bc_1'
      PBX=31.500
      SURF_ID='OPEN'
      /
&VENT ID='Domain bc_2'
      PBY=-14.750
      SURF_ID='OPEN'
      /
&VENT ID='Domain bc_3'
      PBY=16.500
      SURF_ID='OPEN'
      /
&VENT ID='Domain bc_4'
      PBZ=13.500
      SURF_ID='OPEN'
      /
&VENT ID='Ground'
      SURF_ID='INERT'
      PBZ=0.000
      /

&OBST ID='01 Burner at f0'
      FYI='5 m2 on fire'
      SURF_ID='Burner'
      XB=6.500,7.500,-1.500,-0.500,0.000,1.000
      /
! -- 02 Building: 
! 10 voxels, resolution 0.099 m, in 0 s
&OBST ID='Back walls_0'
      XB=-2.130,2.129,15.323,15.424,3.077,4.465
      SURF_ID='Gypsum wall'
      /
&OBST ID='Back walls_1'
      XB=-2.130,2.129,15.323,15.424,7.532,8.524
      SURF_ID='Gypsum wall'
      /
&OBST ID='Back walls_2'
      XB=2.028,2.129,13.838,14.038,3.077,4.465
      SURF_ID='Gypsum wall'
      /
&OBST ID='Back walls_3'
      XB=-2.130,-2.029,13.838,14.038,3.077,4.465
      SURF_ID='Gypsum wall'
      /
&OBST ID='Back walls_4'
      XB=-2.130,-2.029,14.036,15.028,3.077,3.277
      SURF_ID='Gypsum wall'
      /
&OBST ID='Back walls_5'
      XB=2.028,2.129,15.026,15.325,3.077,4.465
      SURF_ID='Gypsum wall'
      /
&OBST ID='Back walls_6'
      XB=-2.130,-2.029,15.026,15.325,3.077,4.465
      SURF_ID='Gypsum wall'
      /
&OBST ID='Back walls_7'
      XB=-2.130,-2.029,13.838,15.325,7.532,8.524
      SURF_ID='Gypsum wall'
      /
&OBST ID='Back walls_8'
      XB=2.028,2.129,14.036,15.028,3.077,3.277
      SURF_ID='Gypsum wall'
      /
&OBST ID='Back walls_9'
      XB=2.028,2.129,13.838,15.325,7.532,8.524
      SURF_ID='Gypsum wall'
      /
! 98 voxels, resolution 0.100 m, in 0 s
&OBST ID='Columns_0'
      XB=9.749,10.251,-2.247,-1.345,0.009,2.711
      SURF_ID='Gypsum wall'
      /
&OBST ID='Columns_1'
      XB=9.749,10.251,-2.247,-1.345,4.409,7.111
      SURF_ID='Gypsum wall'
      /
&OBST ID='Columns_2'
      XB=4.749,5.251,1.353,2.255,0.009,2.711
      SURF_ID='Gypsum wall'
      /
&OBST ID='Columns_3'
      XB=4.749,5.251,1.353,2.255,4.409,7.111
      SURF_ID='Gypsum wall'
      /
&OBST ID='Columns_4'
      XB=9.749,10.251,1.353,2.255,0.009,2.711
      SURF_ID='Gypsum wall'
      /
&OBST ID='Columns_5'
      XB=9.749,10.251,1.353,2.255,4.409,7.111
      SURF_ID='Gypsum wall'
      /
&OBST ID='Columns_6'
      XB=-20.251,-19.749,1.353,2.255,0.009,2.711
      SURF_ID='Gypsum wall'
      /
&OBST ID='Columns_7'
      XB=-20.251,-19.749,1.353,2.255,4.409,7.111
      SURF_ID='Gypsum wall'
      /
&OBST ID='Columns_8'
      XB=-20.051,-19.749,-13.747,-13.345,0.009,3.111
      SURF_ID='Gypsum wall'
      /
&OBST ID='Columns_9'
      XB=-20.051,-19.749,-13.747,-13.345,4.409,7.511
      SURF_ID='Gypsum wall'
      /
&OBST ID='Columns_10'
      XB=-15.251,-14.749,1.353,2.255,0.009,2.711
      SURF_ID='Gypsum wall'
      /
&OBST ID='Columns_11'
      XB=-15.251,-14.749,1.353,2.255,4.409,7.111
      SURF_ID='Gypsum wall'
      /
&OBST ID='Columns_12'
      XB=-25.151,-24.849,-13.747,-13.345,0.009,3.111
      SURF_ID='Gypsum wall'
      /
&OBST ID='Columns_13'
      XB=-25.151,-24.849,-13.747,-13.345,4.409,7.511
      SURF_ID='Gypsum wall'
      /
&OBST ID='Columns_14'
      XB=4.749,5.251,-2.247,-1.345,0.009,2.711
      SURF_ID='Gypsum wall'
      /
&OBST ID='Columns_15'
      XB=4.749,5.251,-2.247,-1.345,4.409,7.111
      SURF_ID='Gypsum wall'
      /
&OBST ID='Columns_16'
      XB=14.749,15.251,1.353,2.255,0.009,2.711
      SURF_ID='Gypsum wall'
      /
&OBST ID='Columns_17'
      XB=14.749,15.251,1.353,2.255,4.409,7.111
      SURF_ID='Gypsum wall'
      /
&OBST ID='Columns_18'
      XB=-10.251,-9.749,1.353,2.255,0.009,2.711
      SURF_ID='Gypsum wall'
      /
&OBST ID='Columns_19'
      XB=-10.251,-9.749,1.353,2.255,4.409,7.111
      SURF_ID='Gypsum wall'
      /
&OBST ID='Columns_20'
      XB=-5.151,-4.849,-13.747,-13.345,0.009,3.111
      SURF_ID='Gypsum wall'
      /
&OBST ID='Columns_21'
      XB=-5.151,-4.849,-13.747,-13.345,4.409,7.511
      SURF_ID='Gypsum wall'
      /
&OBST ID='Columns_22'
      XB=-5.251,-4.749,1.353,2.255,0.009,2.711
      SURF_ID='Gypsum wall'
      /
&OBST ID='Columns_23'
      XB=-5.251,-4.749,1.353,2.255,4.409,7.111
      SURF_ID='Gypsum wall'
      /
&OBST ID='Columns_24'
      XB=-25.251,-24.749,1.353,2.255,4.409,7.111
      SURF_ID='Gypsum wall'
      /
&OBST ID='Columns_25'
      XB=19.749,20.151,1.353,2.255,0.009,2.711
      SURF_ID='Gypsum wall'
      /
&OBST ID='Columns_26'
      XB=19.749,20.151,1.353,2.255,4.409,7.111
      SURF_ID='Gypsum wall'
      /
&OBST ID='Columns_27'
      XB=-30.151,-29.849,-13.747,-13.345,0.009,3.111
      SURF_ID='Gypsum wall'
      /
&OBST ID='Columns_28'
      XB=-30.151,-29.849,-13.747,-13.345,4.409,7.511
      SURF_ID='Gypsum wall'
      /
&OBST ID='Columns_29'
      XB=-15.251,-14.749,-2.247,-1.345,0.009,2.711
      SURF_ID='Gypsum wall'
      /
&OBST ID='Columns_30'
      XB=-15.251,-14.749,-2.247,-1.345,4.409,7.111
      SURF_ID='Gypsum wall'
      /
&OBST ID='Columns_31'
      XB=-20.251,-19.749,-2.247,-1.345,0.009,2.711
      SURF_ID='Gypsum wall'
      /
&OBST ID='Columns_32'
      XB=-20.251,-19.749,-2.247,-1.345,4.409,7.111
      SURF_ID='Gypsum wall'
      /
&OBST ID='Columns_33'
      XB=-15.151,-14.849,-13.747,-13.345,0.009,3.111
      SURF_ID='Gypsum wall'
      /
&OBST ID='Columns_34'
      XB=-15.151,-14.849,-13.747,-13.345,4.409,7.511
      SURF_ID='Gypsum wall'
      /
&OBST ID='Columns_35'
      XB=-10.251,-9.749,-2.247,-1.345,0.009,2.711
      SURF_ID='Gypsum wall'
      /
&OBST ID='Columns_36'
      XB=-10.251,-9.749,-2.247,-1.345,4.409,7.111
      SURF_ID='Gypsum wall'
      /
&OBST ID='Columns_37'
      XB=-5.251,-4.949,13.353,13.655,0.009,3.111
      SURF_ID='Gypsum wall'
      /
&OBST ID='Columns_38'
      XB=-5.251,-4.949,13.353,13.655,4.409,7.511
      SURF_ID='Gypsum wall'
      /
&OBST ID='Columns_39'
      XB=-25.251,-24.749,-2.247,-1.345,4.409,7.111
      SURF_ID='Gypsum wall'
      /
&OBST ID='Columns_40'
      XB=14.749,15.251,-2.247,-1.345,0.009,2.711
      SURF_ID='Gypsum wall'
      /
&OBST ID='Columns_41'
      XB=14.749,15.251,-2.247,-1.345,4.409,7.111
      SURF_ID='Gypsum wall'
      /
&OBST ID='Columns_42'
      XB=4.949,5.251,13.353,13.655,0.009,3.111
      SURF_ID='Gypsum wall'
      /
&OBST ID='Columns_43'
      XB=4.949,5.251,13.353,13.655,4.409,7.511
      SURF_ID='Gypsum wall'
      /
&OBST ID='Columns_44'
      XB=4.849,5.151,-13.747,-13.345,0.009,3.111
      SURF_ID='Gypsum wall'
      /
&OBST ID='Columns_45'
      XB=4.849,5.151,-13.747,-13.345,4.409,7.511
      SURF_ID='Gypsum wall'
      /
&OBST ID='Columns_46'
      XB=24.849,25.151,1.353,1.655,0.009,3.111
      SURF_ID='Gypsum wall'
      /
&OBST ID='Columns_47'
      XB=24.749,25.251,-2.247,-1.345,4.409,7.111
      SURF_ID='Gypsum wall'
      /
&OBST ID='Columns_48'
      XB=-20.051,-19.749,13.353,13.655,0.009,3.111
      SURF_ID='Gypsum wall'
      /
&OBST ID='Columns_49'
      XB=-20.051,-19.749,13.353,13.655,4.409,7.511
      SURF_ID='Gypsum wall'
      /
&OBST ID='Columns_50'
      XB=24.749,25.251,1.353,2.255,4.409,7.111
      SURF_ID='Gypsum wall'
      /
&OBST ID='Columns_51'
      XB=-30.151,-29.849,13.353,13.655,0.009,3.111
      SURF_ID='Gypsum wall'
      /
&OBST ID='Columns_52'
      XB=-30.151,-29.849,13.353,13.655,4.409,7.511
      SURF_ID='Gypsum wall'
      /
&OBST ID='Columns_53'
      XB=-5.251,-4.749,-2.247,-1.345,0.009,2.711
      SURF_ID='Gypsum wall'
      /
&OBST ID='Columns_54'
      XB=-5.251,-4.749,-2.247,-1.345,4.409,7.111
      SURF_ID='Gypsum wall'
      /
&OBST ID='Columns_55'
      XB=29.849,30.151,1.353,1.655,0.009,3.111
      SURF_ID='Gypsum wall'
      /
&OBST ID='Columns_56'
      XB=29.849,30.151,1.353,1.655,4.409,7.511
      SURF_ID='Gypsum wall'
      /
&OBST ID='Columns_57'
      XB=19.749,20.151,-2.247,-1.345,0.009,2.711
      SURF_ID='Gypsum wall'
      /
&OBST ID='Columns_58'
      XB=19.749,20.151,-2.247,-1.345,4.409,7.111
      SURF_ID='Gypsum wall'
      /
&OBST ID='Columns_59'
      XB=-2.251,-2.049,13.353,13.655,0.009,3.111
      SURF_ID='Gypsum wall'
      /
&OBST ID='Columns_60'
      XB=-2.251,-2.049,13.353,13.655,4.409,7.511
      SURF_ID='Gypsum wall'
      /
&OBST ID='Columns_61'
      XB=9.849,10.151,-13.747,-13.345,0.009,3.111
      SURF_ID='Gypsum wall'
      /
&OBST ID='Columns_62'
      XB=9.849,10.151,-13.747,-13.345,4.409,7.511
      SURF_ID='Gypsum wall'
      /
&OBST ID='Columns_63'
      XB=24.849,25.151,-13.747,-13.345,0.009,3.111
      SURF_ID='Gypsum wall'
      /
&OBST ID='Columns_64'
      XB=24.849,25.151,-13.747,-13.345,4.409,7.511
      SURF_ID='Gypsum wall'
      /
&OBST ID='Columns_65'
      XB=-15.151,-14.849,13.353,13.655,0.009,3.111
      SURF_ID='Gypsum wall'
      /
&OBST ID='Columns_66'
      XB=-15.151,-14.849,13.353,13.655,4.409,7.511
      SURF_ID='Gypsum wall'
      /
&OBST ID='Columns_67'
      XB=29.849,30.151,13.353,13.655,0.009,3.111
      SURF_ID='Gypsum wall'
      /
&OBST ID='Columns_68'
      XB=29.849,30.151,13.353,13.655,4.409,7.511
      SURF_ID='Gypsum wall'
      /
&OBST ID='Columns_69'
      XB=29.849,30.151,-13.747,-13.345,0.009,3.111
      SURF_ID='Gypsum wall'
      /
&OBST ID='Columns_70'
      XB=29.849,30.151,-13.747,-13.345,4.409,7.511
      SURF_ID='Gypsum wall'
      /
&OBST ID='Columns_71'
      XB=-10.151,-9.849,-13.747,-13.345,0.009,3.111
      SURF_ID='Gypsum wall'
      /
&OBST ID='Columns_72'
      XB=-10.151,-9.849,-13.747,-13.345,4.409,7.511
      SURF_ID='Gypsum wall'
      /
&OBST ID='Columns_73'
      XB=14.849,15.151,13.353,13.655,0.009,3.111
      SURF_ID='Gypsum wall'
      /
&OBST ID='Columns_74'
      XB=14.849,15.151,13.353,13.655,4.409,7.511
      SURF_ID='Gypsum wall'
      /
&OBST ID='Columns_75'
      XB=14.849,15.151,-13.747,-13.345,0.009,3.111
      SURF_ID='Gypsum wall'
      /
&OBST ID='Columns_76'
      XB=14.849,15.151,-13.747,-13.345,4.409,7.511
      SURF_ID='Gypsum wall'
      /
&OBST ID='Columns_77'
      XB=-25.151,-24.849,13.353,13.655,0.009,3.111
      SURF_ID='Gypsum wall'
      /
&OBST ID='Columns_78'
      XB=-25.151,-24.849,13.353,13.655,4.409,7.511
      SURF_ID='Gypsum wall'
      /
&OBST ID='Columns_79'
      XB=24.849,25.151,-1.647,-1.345,0.009,3.111
      SURF_ID='Gypsum wall'
      /
&OBST ID='Columns_80'
      XB=19.849,20.151,-13.747,-13.345,0.009,3.111
      SURF_ID='Gypsum wall'
      /
&OBST ID='Columns_81'
      XB=19.849,20.151,-13.747,-13.345,4.409,7.511
      SURF_ID='Gypsum wall'
      /
&OBST ID='Columns_82'
      XB=-25.151,-24.849,-1.647,-1.345,0.009,3.111
      SURF_ID='Gypsum wall'
      /
&OBST ID='Columns_83'
      XB=-30.151,-29.849,1.353,1.655,0.009,3.111
      SURF_ID='Gypsum wall'
      /
&OBST ID='Columns_84'
      XB=2.049,2.251,13.353,13.655,0.009,3.111
      SURF_ID='Gypsum wall'
      /
&OBST ID='Columns_85'
      XB=2.049,2.251,13.353,13.655,4.409,7.511
      SURF_ID='Gypsum wall'
      /
&OBST ID='Columns_86'
      XB=-30.151,-29.849,-1.647,-1.345,0.009,3.111
      SURF_ID='Gypsum wall'
      /
&OBST ID='Columns_87'
      XB=-10.151,-9.849,13.353,13.655,0.009,3.111
      SURF_ID='Gypsum wall'
      /
&OBST ID='Columns_88'
      XB=-10.151,-9.849,13.353,13.655,4.409,7.511
      SURF_ID='Gypsum wall'
      /
&OBST ID='Columns_89'
      XB=29.849,30.151,-1.647,-1.345,0.009,3.111
      SURF_ID='Gypsum wall'
      /
&OBST ID='Columns_90'
      XB=29.849,30.151,-1.647,-1.345,4.409,7.511
      SURF_ID='Gypsum wall'
      /
&OBST ID='Columns_91'
      XB=19.849,20.151,13.353,13.655,0.009,3.111
      SURF_ID='Gypsum wall'
      /
&OBST ID='Columns_92'
      XB=19.849,20.151,13.353,13.655,4.409,7.511
      SURF_ID='Gypsum wall'
      /
&OBST ID='Columns_93'
      XB=9.849,10.151,13.353,13.655,0.009,3.111
      SURF_ID='Gypsum wall'
      /
&OBST ID='Columns_94'
      XB=9.849,10.151,13.353,13.655,4.409,7.511
      SURF_ID='Gypsum wall'
      /
&OBST ID='Columns_95'
      XB=-25.151,-24.849,1.353,1.655,0.009,3.111
      SURF_ID='Gypsum wall'
      /
&OBST ID='Columns_96'
      XB=24.849,25.151,13.353,13.655,0.009,3.111
      SURF_ID='Gypsum wall'
      /
&OBST ID='Columns_97'
      XB=24.849,25.151,13.353,13.655,4.409,7.511
      SURF_ID='Gypsum wall'
      /
! 89 voxels, resolution 0.100 m, in 0 s
&OBST ID='External stairs_0'
      XB=-34.894,-32.192,6.537,6.639,2.059,2.161
      SURF_ID='Gypsum wall'
      /
&OBST ID='External stairs_1'
      XB=-35.494,-33.692,2.937,3.239,0.959,1.061
      SURF_ID='Gypsum wall'
      /
&OBST ID='External stairs_2'
      XB=-33.394,-30.292,0.037,1.039,4.359,4.461
      SURF_ID='Gypsum wall'
      /
&OBST ID='External stairs_3'
      XB=30.306,34.008,0.037,0.939,4.359,4.461
      SURF_ID='Gypsum wall'
      /
&OBST ID='External stairs_4'
      XB=-32.694,-30.292,-0.663,-0.561,4.359,4.461
      SURF_ID='Gypsum wall'
      /
&OBST ID='External stairs_5'
      XB=30.306,33.308,-0.663,-0.561,4.359,4.461
      SURF_ID='Gypsum wall'
      /
&OBST ID='External stairs_6'
      XB=32.206,34.008,8.037,8.339,0.959,1.061
      SURF_ID='Gypsum wall'
      /
&OBST ID='External stairs_7'
      XB=-33.394,-31.592,1.837,2.139,3.859,3.961
      SURF_ID='Gypsum wall'
      /
&OBST ID='External stairs_8'
      XB=32.206,34.008,1.837,2.139,3.859,3.961
      SURF_ID='Gypsum wall'
      /
&OBST ID='External stairs_9'
      XB=-33.394,-31.592,2.137,2.439,3.659,3.761
      SURF_ID='Gypsum wall'
      /
&OBST ID='External stairs_10'
      XB=32.206,34.008,2.137,2.439,3.659,3.761
      SURF_ID='Gypsum wall'
      /
&OBST ID='External stairs_11'
      XB=-35.494,-31.592,5.237,6.039,2.059,2.161
      SURF_ID='Gypsum wall'
      /
&OBST ID='External stairs_12'
      XB=-35.494,-33.692,4.037,4.339,1.559,1.661
      SURF_ID='Gypsum wall'
      /
&OBST ID='External stairs_13'
      XB=-33.394,-31.592,4.337,4.639,2.359,2.461
      SURF_ID='Gypsum wall'
      /
&OBST ID='External stairs_14'
      XB=32.206,34.008,4.337,4.639,2.359,2.461
      SURF_ID='Gypsum wall'
      /
&OBST ID='External stairs_15'
      XB=32.206,34.008,4.637,5.939,2.259,2.361
      SURF_ID='Gypsum wall'
      /
&OBST ID='External stairs_16'
      XB=-35.494,-33.692,1.837,2.139,0.359,0.461
      SURF_ID='Gypsum wall'
      /
&OBST ID='External stairs_17'
      XB=32.206,34.008,8.637,8.939,0.659,0.761
      SURF_ID='Gypsum wall'
      /
&OBST ID='External stairs_18'
      XB=32.206,34.008,9.837,10.139,-0.041,0.061
      SURF_ID='Gypsum wall'
      /
&OBST ID='External stairs_19'
      XB=32.206,34.008,8.937,9.239,0.459,0.561
      SURF_ID='Gypsum wall'
      /
&OBST ID='External stairs_20'
      XB=-33.394,-31.592,4.037,4.339,2.559,2.661
      SURF_ID='Gypsum wall'
      /
&OBST ID='External stairs_21'
      XB=32.206,34.008,4.037,4.339,2.559,2.661
      SURF_ID='Gypsum wall'
      /
&OBST ID='External stairs_22'
      XB=-35.494,-33.692,3.537,3.839,1.259,1.361
      SURF_ID='Gypsum wall'
      /
&OBST ID='External stairs_23'
      XB=-35.494,-33.692,4.937,5.239,2.059,2.161
      SURF_ID='Gypsum wall'
      /
&OBST ID='External stairs_24'
      XB=-33.394,-31.592,4.937,5.239,2.059,2.161
      SURF_ID='Gypsum wall'
      /
&OBST ID='External stairs_25'
      XB=-35.494,-33.692,4.637,4.939,1.959,2.061
      SURF_ID='Gypsum wall'
      /
&OBST ID='External stairs_26'
      XB=32.206,34.008,6.537,6.839,1.759,1.861
      SURF_ID='Gypsum wall'
      /
&OBST ID='External stairs_27'
      XB=-33.294,-30.292,-0.063,0.039,4.359,4.461
      SURF_ID='Gypsum wall'
      /
&OBST ID='External stairs_28'
      XB=30.306,33.908,-0.063,0.039,4.359,4.461
      SURF_ID='Gypsum wall'
      /
&OBST ID='External stairs_29'
      XB=32.206,34.008,5.937,6.239,2.059,2.161
      SURF_ID='Gypsum wall'
      /
&OBST ID='External stairs_30'
      XB=-35.494,-33.692,4.337,4.639,1.759,1.861
      SURF_ID='Gypsum wall'
      /
&OBST ID='External stairs_31'
      XB=-33.394,-31.592,2.637,2.939,3.359,3.461
      SURF_ID='Gypsum wall'
      /
&OBST ID='External stairs_32'
      XB=32.206,34.008,2.637,2.939,3.359,3.461
      SURF_ID='Gypsum wall'
      /
&OBST ID='External stairs_33'
      XB=-33.394,-31.592,4.637,4.939,2.259,2.361
      SURF_ID='Gypsum wall'
      /
&OBST ID='External stairs_34'
      XB=32.206,34.008,7.437,7.739,1.259,1.361
      SURF_ID='Gypsum wall'
      /
&OBST ID='External stairs_35'
      XB=32.206,34.008,7.137,7.439,1.459,1.561
      SURF_ID='Gypsum wall'
      /
&OBST ID='External stairs_36'
      XB=-35.294,-31.792,6.137,6.239,2.059,2.161
      SURF_ID='Gypsum wall'
      /
&OBST ID='External stairs_37'
      XB=-35.494,-33.692,2.637,2.939,0.759,0.861
      SURF_ID='Gypsum wall'
      /
&OBST ID='External stairs_38'
      XB=-33.394,-31.592,2.337,2.639,3.559,3.661
      SURF_ID='Gypsum wall'
      /
&OBST ID='External stairs_39'
      XB=32.206,34.008,2.337,2.639,3.559,3.661
      SURF_ID='Gypsum wall'
      /
&OBST ID='External stairs_40'
      XB=-33.194,-30.292,-0.163,-0.061,4.359,4.461
      SURF_ID='Gypsum wall'
      /
&OBST ID='External stairs_41'
      XB=30.306,33.808,-0.163,-0.061,4.359,4.461
      SURF_ID='Gypsum wall'
      /
&OBST ID='External stairs_42'
      XB=-34.494,-32.592,6.937,7.039,2.059,2.161
      SURF_ID='Gypsum wall'
      /
&OBST ID='External stairs_43'
      XB=-35.494,-33.692,2.137,2.439,0.459,0.561
      SURF_ID='Gypsum wall'
      /
&OBST ID='External stairs_44'
      XB=-35.494,-33.692,1.537,1.839,0.159,0.261
      SURF_ID='Gypsum wall'
      /
&OBST ID='External stairs_45'
      XB=-32.494,-30.292,-0.863,-0.761,4.359,4.461
      SURF_ID='Gypsum wall'
      /
&OBST ID='External stairs_46'
      XB=30.306,33.108,-0.863,-0.761,4.359,4.461
      SURF_ID='Gypsum wall'
      /
&OBST ID='External stairs_47'
      XB=-33.394,-31.592,1.537,1.839,3.959,4.061
      SURF_ID='Gypsum wall'
      /
&OBST ID='External stairs_48'
      XB=32.206,34.008,1.537,1.839,3.959,4.061
      SURF_ID='Gypsum wall'
      /
&OBST ID='External stairs_49'
      XB=-33.394,-31.592,3.537,3.839,2.859,2.961
      SURF_ID='Gypsum wall'
      /
&OBST ID='External stairs_50'
      XB=32.206,34.008,3.537,3.839,2.859,2.961
      SURF_ID='Gypsum wall'
      /
&OBST ID='External stairs_51'
      XB=-33.394,-31.592,3.237,3.539,3.059,3.161
      SURF_ID='Gypsum wall'
      /
&OBST ID='External stairs_52'
      XB=32.206,34.008,3.237,3.539,3.059,3.161
      SURF_ID='Gypsum wall'
      /
&OBST ID='External stairs_53'
      XB=-34.694,-32.392,6.737,6.839,2.059,2.161
      SURF_ID='Gypsum wall'
      /
&OBST ID='External stairs_54'
      XB=32.206,34.008,9.237,9.539,0.359,0.461
      SURF_ID='Gypsum wall'
      /
&OBST ID='External stairs_55'
      XB=-33.094,-30.292,-0.263,-0.161,4.359,4.461
      SURF_ID='Gypsum wall'
      /
&OBST ID='External stairs_56'
      XB=30.306,33.708,-0.263,-0.161,4.359,4.461
      SURF_ID='Gypsum wall'
      /
&OBST ID='External stairs_57'
      XB=-33.394,-31.592,1.237,1.539,4.159,4.261
      SURF_ID='Gypsum wall'
      /
&OBST ID='External stairs_58'
      XB=32.206,34.008,1.237,1.539,4.159,4.261
      SURF_ID='Gypsum wall'
      /
&OBST ID='External stairs_59'
      XB=-34.594,-32.492,6.837,6.939,2.059,2.161
      SURF_ID='Gypsum wall'
      /
&OBST ID='External stairs_60'
      XB=-35.494,-33.692,3.237,3.539,1.159,1.261
      SURF_ID='Gypsum wall'
      /
&OBST ID='External stairs_61'
      XB=32.206,34.008,8.337,8.639,0.759,0.861
      SURF_ID='Gypsum wall'
      /
&OBST ID='External stairs_62'
      XB=-32.394,-30.292,-0.963,-0.861,4.359,4.461
      SURF_ID='Gypsum wall'
      /
&OBST ID='External stairs_63'
      XB=30.306,33.008,-0.963,-0.861,4.359,4.461
      SURF_ID='Gypsum wall'
      /
&OBST ID='External stairs_64'
      XB=-33.394,-31.592,3.737,4.039,2.759,2.861
      SURF_ID='Gypsum wall'
      /
&OBST ID='External stairs_65'
      XB=32.206,34.008,3.737,4.039,2.759,2.861
      SURF_ID='Gypsum wall'
      /
&OBST ID='External stairs_66'
      XB=32.206,34.008,6.837,7.139,1.559,1.661
      SURF_ID='Gypsum wall'
      /
&OBST ID='External stairs_67'
      XB=-35.494,-33.692,3.737,4.039,1.459,1.561
      SURF_ID='Gypsum wall'
      /
&OBST ID='External stairs_68'
      XB=32.206,34.008,6.237,6.539,1.959,2.061
      SURF_ID='Gypsum wall'
      /
&OBST ID='External stairs_69'
      XB=-32.994,-30.292,-0.363,-0.261,4.359,4.461
      SURF_ID='Gypsum wall'
      /
&OBST ID='External stairs_70'
      XB=30.306,33.608,-0.363,-0.261,4.359,4.461
      SURF_ID='Gypsum wall'
      /
&OBST ID='External stairs_71'
      XB=-35.494,-33.692,2.337,2.639,0.659,0.761
      SURF_ID='Gypsum wall'
      /
&OBST ID='External stairs_72'
      XB=32.206,34.008,9.537,9.839,0.159,0.261
      SURF_ID='Gypsum wall'
      /
&OBST ID='External stairs_73'
      XB=-32.594,-30.292,-0.763,-0.661,4.359,4.461
      SURF_ID='Gypsum wall'
      /
&OBST ID='External stairs_74'
      XB=30.306,33.208,-0.763,-0.661,4.359,4.461
      SURF_ID='Gypsum wall'
      /
&OBST ID='External stairs_75'
      XB=-35.194,-31.892,6.237,6.339,2.059,2.161
      SURF_ID='Gypsum wall'
      /
&OBST ID='External stairs_76'
      XB=-33.394,-31.592,2.937,3.239,3.159,3.261
      SURF_ID='Gypsum wall'
      /
&OBST ID='External stairs_77'
      XB=32.206,34.008,2.937,3.239,3.159,3.261
      SURF_ID='Gypsum wall'
      /
&OBST ID='External stairs_78'
      XB=32.206,34.008,0.937,1.239,4.359,4.461
      SURF_ID='Gypsum wall'
      /
&OBST ID='External stairs_79'
      XB=-32.894,-30.292,-0.463,-0.361,4.359,4.461
      SURF_ID='Gypsum wall'
      /
&OBST ID='External stairs_80'
      XB=30.306,33.508,-0.463,-0.361,4.359,4.461
      SURF_ID='Gypsum wall'
      /
&OBST ID='External stairs_81'
      XB=32.206,34.008,7.737,8.039,1.159,1.261
      SURF_ID='Gypsum wall'
      /
&OBST ID='External stairs_82'
      XB=-34.794,-32.292,6.637,6.739,2.059,2.161
      SURF_ID='Gypsum wall'
      /
&OBST ID='External stairs_83'
      XB=-32.794,-30.292,-0.563,-0.461,4.359,4.461
      SURF_ID='Gypsum wall'
      /
&OBST ID='External stairs_84'
      XB=30.306,33.408,-0.563,-0.461,4.359,4.461
      SURF_ID='Gypsum wall'
      /
&OBST ID='External stairs_85'
      XB=-35.094,-31.992,6.337,6.439,2.059,2.161
      SURF_ID='Gypsum wall'
      /
&OBST ID='External stairs_86'
      XB=-35.394,-31.692,6.037,6.139,2.059,2.161
      SURF_ID='Gypsum wall'
      /
&OBST ID='External stairs_87'
      XB=-34.994,-32.092,6.437,6.539,2.059,2.161
      SURF_ID='Gypsum wall'
      /
&OBST ID='External stairs_88'
      XB=-33.394,-31.592,1.037,1.239,4.359,4.461
      SURF_ID='Gypsum wall'
      /
! 100 voxels, resolution 0.099 m, in 0 s
&OBST ID='Internal stairs_0'
      XB=-1.932,-0.148,11.333,11.929,7.071,7.172
      SURF_ID='Gypsum wall'
      /
&OBST ID='Internal stairs_1'
      XB=-1.932,-0.148,10.838,11.335,3.507,3.608
      SURF_ID='Gypsum wall'
      /
&OBST ID='Internal stairs_2'
      XB=-1.932,-0.148,12.422,12.820,6.477,6.578
      SURF_ID='Gypsum wall'
      /
&OBST ID='Internal stairs_3'
      XB=-1.932,-0.148,11.036,11.335,7.269,7.370
      SURF_ID='Gypsum wall'
      /
&OBST ID='Internal stairs_4'
      XB=-1.932,-0.148,9.353,9.949,8.259,8.360
      SURF_ID='Gypsum wall'
      /
&OBST ID='Internal stairs_5'
      XB=-1.932,-0.148,9.749,10.147,4.101,4.202
      SURF_ID='Gypsum wall'
      /
&OBST ID='Internal stairs_6'
      XB=0.147,1.931,12.224,12.820,1.626,1.727
      SURF_ID='Gypsum wall'
      /
&OBST ID='Internal stairs_7'
      XB=-2.031,2.030,13.808,15.295,6.279,6.479
      SURF_ID='Gypsum wall'
      /
&OBST ID='Internal stairs_8'
      XB=-1.932,-0.148,11.135,11.632,3.309,3.410
      SURF_ID='Gypsum wall'
      /
&OBST ID='Internal stairs_9'
      XB=0.147,1.931,12.224,12.820,5.883,5.984
      SURF_ID='Gypsum wall'
      /
&OBST ID='Internal stairs_10'
      XB=-1.932,-0.148,12.125,12.523,2.715,2.816
      SURF_ID='Gypsum wall'
      /
&OBST ID='Internal stairs_11'
      XB=0.147,1.931,10.244,10.642,0.339,0.440
      SURF_ID='Gypsum wall'
      /
&OBST ID='Internal stairs_12'
      XB=-2.031,2.030,13.808,15.295,2.022,2.222
      SURF_ID='Gypsum wall'
      /
&OBST ID='Internal stairs_13'
      XB=0.147,1.931,11.135,11.632,5.190,5.291
      SURF_ID='Gypsum wall'
      /
&OBST ID='Internal stairs_14'
      XB=0.147,1.931,11.135,11.632,0.933,1.034
      SURF_ID='Gypsum wall'
      /
&OBST ID='Internal stairs_15'
      XB=0.147,1.931,11.729,12.127,1.230,1.331
      SURF_ID='Gypsum wall'
      /
&OBST ID='Internal stairs_16'
      XB=0.147,1.931,10.244,10.741,0.438,0.539
      SURF_ID='Gypsum wall'
      /
&OBST ID='Internal stairs_17'
      XB=-1.932,-0.148,9.254,9.652,8.358,8.459
      SURF_ID='Gypsum wall'
      /
&OBST ID='Internal stairs_18'
      XB=0.147,1.931,9.650,9.949,4.200,4.301
      SURF_ID='Gypsum wall'
      /
&OBST ID='Internal stairs_19'
      XB=0.147,1.931,12.818,13.117,1.824,1.925
      SURF_ID='Gypsum wall'
      /
&OBST ID='Internal stairs_20'
      XB=-1.932,1.931,7.868,9.652,4.299,4.400
      SURF_ID='Gypsum wall'
      /
&OBST ID='Internal stairs_21'
      XB=0.147,1.931,12.521,13.018,1.725,1.826
      SURF_ID='Gypsum wall'
      /
&OBST ID='Internal stairs_22'
      XB=0.147,1.931,11.432,11.929,5.388,5.489
      SURF_ID='Gypsum wall'
      /
&OBST ID='Internal stairs_23'
      XB=-1.932,1.931,7.868,8.761,4.200,4.301
      SURF_ID='Gypsum wall'
      /
&OBST ID='Internal stairs_24'
      XB=-1.932,-0.148,10.244,10.741,7.764,7.865
      SURF_ID='Gypsum wall'
      /
&OBST ID='Internal stairs_25'
      XB=0.147,1.931,10.838,11.137,0.636,0.737
      SURF_ID='Gypsum wall'
      /
&OBST ID='Internal stairs_26'
      XB=0.147,1.931,12.818,13.315,1.923,2.024
      SURF_ID='Gypsum wall'
      /
&OBST ID='Internal stairs_27'
      XB=0.147,1.931,10.838,11.335,0.735,0.836
      SURF_ID='Gypsum wall'
      /
&OBST ID='Internal stairs_28'
      XB=-1.932,-0.148,13.016,13.414,2.220,2.321
      SURF_ID='Gypsum wall'
      /
&OBST ID='Internal stairs_29'
      XB=-1.932,-0.148,11.828,12.226,2.913,3.014
      SURF_ID='Gypsum wall'
      /
&OBST ID='Internal stairs_30'
      XB=-1.932,-0.148,9.947,10.444,4.002,4.103
      SURF_ID='Gypsum wall'
      /
&OBST ID='Internal stairs_31'
      XB=0.147,1.931,9.947,10.444,4.497,4.598
      SURF_ID='Gypsum wall'
      /
&OBST ID='Internal stairs_32'
      XB=0.147,1.931,9.947,10.246,4.398,4.499
      SURF_ID='Gypsum wall'
      /
&OBST ID='Internal stairs_33'
      XB=0.147,1.931,9.650,10.147,4.299,4.400
      SURF_ID='Gypsum wall'
      /
&OBST ID='Internal stairs_34'
      XB=-1.932,-0.148,12.818,13.414,2.319,2.420
      SURF_ID='Gypsum wall'
      /
&OBST ID='Internal stairs_35'
      XB=-1.932,-0.148,12.620,13.117,2.418,2.519
      SURF_ID='Gypsum wall'
      /
&OBST ID='Internal stairs_36'
      XB=-1.932,-0.148,12.026,12.523,6.675,6.776
      SURF_ID='Gypsum wall'
      /
&OBST ID='Internal stairs_37'
      XB=-1.932,-0.148,12.323,12.820,2.616,2.717
      SURF_ID='Gypsum wall'
      /
&OBST ID='Internal stairs_38'
      XB=0.147,1.931,9.947,10.246,0.141,0.242
      SURF_ID='Gypsum wall'
      /
&OBST ID='Internal stairs_39'
      XB=-1.932,-0.148,10.838,11.335,7.368,7.469
      SURF_ID='Gypsum wall'
      /
&OBST ID='Internal stairs_40'
      XB=-1.932,-0.148,12.521,12.820,2.517,2.618
      SURF_ID='Gypsum wall'
      /
&OBST ID='Internal stairs_41'
      XB=-1.932,-0.148,11.927,12.226,6.774,6.875
      SURF_ID='Gypsum wall'
      /
&OBST ID='Internal stairs_42'
      XB=-1.932,-0.148,11.432,11.929,3.111,3.212
      SURF_ID='Gypsum wall'
      /
&OBST ID='Internal stairs_43'
      XB=0.147,1.931,10.541,10.939,0.537,0.638
      SURF_ID='Gypsum wall'
      /
&OBST ID='Internal stairs_44'
      XB=-1.932,-0.148,9.551,9.949,8.160,8.261
      SURF_ID='Gypsum wall'
      /
&OBST ID='Internal stairs_45'
      XB=-1.932,-0.148,9.650,10.147,8.061,8.162
      SURF_ID='Gypsum wall'
      /
&OBST ID='Internal stairs_46'
      XB=0.147,1.931,11.432,11.929,1.131,1.232
      SURF_ID='Gypsum wall'
      /
&OBST ID='Internal stairs_47'
      XB=0.147,1.931,11.135,11.434,0.834,0.935
      SURF_ID='Gypsum wall'
      /
&OBST ID='Internal stairs_48'
      XB=0.147,1.931,12.224,12.622,5.784,5.885
      SURF_ID='Gypsum wall'
      /
&OBST ID='Internal stairs_49'