! Generated by BlenderFDS 4.0.0 on Blender 2.76 (sub 0)
! Case: test_s2_n (from Blender Scene)
! Description: Test case, scenario 2
! Date: Mon, 25 Jan 2016, 14:57:23
! File: /home/egissi/Documenti/Argomenti/BlenderFDS/blenderfds/examples/test/test.blend

&HEAD CHID='test_s2_n'
      TITLE='Test case, scenario 2'
      /
&TIME T_BEGIN=0.0
      T_END=300.0
      /
&REAC FUEL='NZ C-VM2 pre-fo'
      FYI='NZ C-VM2, Table 2.1, pre-flashover design fire'
      FORMULA='C2H4O1'
      CO_YIELD=0.040
      SOOT_YIELD=0.070
      HEAT_OF_COMBUSTION=20000.0
      /
! Output is dumped every 1.00 s
&DUMP RENDER_FILE='test_s2_n.ge1'
      NFRAMES=300
      /

! --- Free text: 'Free text'

! Thermo-physical properties of gypsum plaster.
&MATL ID='gypsum plaster', CONDUCTIVITY=0.48,
      SPECIFIC_HEAT=0.84, DENSITY=1440. /
&PROP ID='acme smoke detector', QUANTITY='CHAMBER OBSCURATION',
      LENGTH=1.8, ACTIVATION_OBSCURATION=3.28 /
&ISOF QUANTITY='TEMPERATURE', VALUE(1)=60. /
&ISOF QUANTITY='VISIBILITY', VALUE(1)=10. /
&BNDF QUANTITY='ADIABATIC SURFACE TEMPERATURE' /

! --- Boundary conditions (from Blender Materials)

! HRR(t) has a t² ramp
&SURF ID='burner'
      FYI='Est.d area 0.28 m², HRR max 250 kW, fast t² ramp (EN)'
      RGB=204,0,0
      HRRPUA=889.680
      TAU_Q=-75.0
      /
&SURF ID='glass'
      RGB=0,204,204
      TRANSPARENCY=0.500
      /
&SURF ID='gypsum wall'
      FYI='30 mm thick gypsum wall'
      RGB=89,89,89
      MATL_ID='gypsum plaster'
      THICKNESS=0.030
      /

! --- Geometric entities (from Blender Objects)

! -- 00 Domain: Domain definition
! 100000 mesh cells of size 0.100x0.100x0.100 m
&MESH ID='d1'
      IJK=50,50,40
      XB=-2.000,3.000,-2.000,3.000,0.000,4.000
      /
! 5 faces
&VENT ID='d1 bc_0'
      XB=-2.000,-2.000,-2.000,3.000,0.000,4.000
      SURF_ID='OPEN'
      /
&VENT ID='d1 bc_1'
      XB=-2.000,3.000,-2.000,-2.000,0.000,4.000
      SURF_ID='OPEN'
      /
&VENT ID='d1 bc_2'
      XB=-2.000,3.000,-2.000,3.000,4.000,4.000
      SURF_ID='OPEN'
      /
&VENT ID='d1 bc_3'
      XB=-2.000,3.000,3.000,3.000,0.000,4.000
      SURF_ID='OPEN'
      /
&VENT ID='d1 bc_4'
      XB=3.000,3.000,-2.000,3.000,0.000,4.000
      SURF_ID='OPEN'
      /
&VENT ID='d1 bc base'
      SURF_ID='INERT'
      XB=-2.000,3.000,-2.000,3.000,0.000,0.000
      /

! -- 01 Burner s2: Group of namelists that define the burner
! 11 voxels, resolution 0.049 m, in 0 s
&OBST ID='Burner base s2_0'
      XB=-1.220,-0.581,-1.171,-1.120,-0.019,0.620
      SURF_ID='INERT'
      /
&OBST ID='Burner base s2_1'
      XB=-1.269,-0.532,-0.828,-0.679,-0.019,0.620
      SURF_ID='INERT'
      /
&OBST ID='Burner base s2_2'
      XB=-1.122,-0.679,-0.583,-0.532,-0.019,0.620
      SURF_ID='INERT'
      /
&OBST ID='Burner base s2_3'
      XB=-1.171,-0.630,-1.220,-1.169,-0.019,0.620
      SURF_ID='INERT'
      /
&OBST ID='Burner base s2_4'
      XB=-1.269,-0.532,-1.122,-0.973,-0.019,0.620
      SURF_ID='INERT'
      /
&OBST ID='Burner base s2_5'
      XB=-1.220,-0.581,-0.681,-0.630,-0.019,0.620
      SURF_ID='INERT'
      /
&OBST ID='Burner base s2_6'
      XB=-1.171,-0.630,-0.632,-0.581,-0.019,0.620
      SURF_ID='INERT'
      /
&OBST ID='Burner base s2_7'
      XB=-1.122,-0.679,-1.269,-1.218,-0.019,0.620
      SURF_ID='INERT'
      /
&OBST ID='Burner base s2_8'
      XB=-1.318,-0.483,-0.975,-0.826,-0.019,0.620
      SURF_ID='INERT'
      /
&OBST ID='Burner base s2_9'
      XB=-0.975,-0.826,-1.318,-1.267,-0.019,0.620
      SURF_ID='INERT'
      /
&OBST ID='Burner base s2_10'
      XB=-0.975,-0.826,-0.534,-0.483,-0.019,0.620
      SURF_ID='INERT'
      /
! 11 voxels, resolution 0.050 m, in 0 s
&OBST ID='Shown Burner base s2 XBs_0'
      XB=-1.226,-0.574,-1.176,-1.124,-0.026,0.626
      SURF_ID='INERT'
      /
&OBST ID='Shown Burner base s2 XBs_1'
      XB=-1.276,-0.524,-0.826,-0.674,-0.026,0.626
      SURF_ID='INERT'
      /
&OBST ID='Shown Burner base s2 XBs_2'
      XB=-1.126,-0.674,-0.576,-0.524,-0.026,0.626
      SURF_ID='INERT'
      /
&OBST ID='Shown Burner base s2 XBs_3'
      XB=-1.176,-0.624,-1.226,-1.174,-0.026,0.626
      SURF_ID='INERT'
      /
&OBST ID='Shown Burner base s2 XBs_4'
      XB=-1.276,-0.524,-1.126,-0.974,-0.026,0.626
      SURF_ID='INERT'
      /
&OBST ID='Shown Burner base s2 XBs_5'
      XB=-1.226,-0.574,-0.676,-0.624,-0.026,0.626
      SURF_ID='INERT'
      /
&OBST ID='Shown Burner base s2 XBs_6'
      XB=-1.176,-0.624,-0.626,-0.574,-0.026,0.626
      SURF_ID='INERT'
      /
&OBST ID='Shown Burner base s2 XBs_7'
      XB=-1.126,-0.674,-1.276,-1.224,-0.026,0.626
      SURF_ID='INERT'
      /
&OBST ID='Shown Burner base s2 XBs_8'
      XB=-1.326,-0.474,-0.976,-0.824,-0.026,0.626
      SURF_ID='INERT'
      /
&OBST ID='Shown Burner base s2 XBs_9'
      XB=-0.976,-0.824,-1.326,-1.274,-0.026,0.626
      SURF_ID='INERT'
      /
&OBST ID='Shown Burner base s2 XBs_10'
      XB=-0.976,-0.824,-0.526,-0.474,-0.026,0.626
      SURF_ID='INERT'
      /

! 17 pixels, resolution 0.019 m, in 0 s
&VENT ID='Burner top s2_0'
      XB=-1.196,-0.605,-0.987,-0.814,0.626,0.626
      SURF_ID='burner'
      /
&VENT ID='Burner top s2_1'
      XB=-1.177,-0.624,-1.044,-0.985,0.626,0.626
      SURF_ID='burner'
      /
&VENT ID='Burner top s2_2'
      XB=-1.044,-0.757,-0.645,-0.624,0.626,0.626
      SURF_ID='burner'
      /
&VENT ID='Burner top s2_3'
      XB=-1.120,-0.681,-0.702,-0.681,0.626,0.626
      SURF_ID='burner'
      /
&VENT ID='Burner top s2_4'
      XB=-1.101,-0.700,-1.139,-1.118,0.626,0.626
      SURF_ID='burner'
      /
&VENT ID='Burner top s2_5'
      XB=-1.177,-0.624,-0.816,-0.757,0.626,0.626
      SURF_ID='burner'
      /
&VENT ID='Burner top s2_6'
      XB=-1.158,-0.643,-0.759,-0.738,0.626,0.626
      SURF_ID='burner'
      /
&VENT ID='Burner top s2_7'
      XB=-0.987,-0.814,-1.196,-1.175,0.626,0.626
      SURF_ID='burner'
      /
&VENT ID='Burner top s2_8'
      XB=-1.139,-0.662,-1.101,-1.061,0.626,0.626
      SURF_ID='burner'
      /
&VENT ID='Burner top s2_9'
      XB=-1.063,-0.738,-0.664,-0.643,0.626,0.626
      SURF_ID='burner'
      /
&VENT ID='Burner top s2_10'
      XB=-0.987,-0.814,-0.626,-0.605,0.626,0.626
      SURF_ID='burner'
      /
&VENT ID='Burner top s2_11'
      XB=-1.158,-0.643,-1.063,-1.042,0.626,0.626
      SURF_ID='burner'
      /
&VENT ID='Burner top s2_12'
      XB=-1.139,-0.662,-0.740,-0.700,0.626,0.626
      SURF_ID='burner'
      /
&VENT ID='Burner top s2_13'
      XB=-1.063,-0.738,-1.158,-1.137,0.626,0.626
      SURF_ID='burner'
      /
&VENT ID='Burner top s2_14'
      XB=-1.101,-0.700,-0.683,-0.662,0.626,0.626
      SURF_ID='burner'
      /
&VENT ID='Burner top s2_15'
      XB=-1.120,-0.681,-1.120,-1.099,0.626,0.626
      SURF_ID='burner'
      /
&VENT ID='Burner top s2_16'
      XB=-1.044,-0.757,-1.177,-1.156,0.626,0.626
      SURF_ID='burner'
      /

! -- 02 Building: Group of namelists that define the building geometry
! -- Glass door: 
&OBST ID='glass door'
      SURF_ID='glass'
      XB=1.450,1.450,-0.845,0.055,0.000,2.100
      DEVC_ID='glass door breaker'
      /
&DEVC ID='glass door breaker'
      FYI='This device breaks the glass door'
      QUANTITY='TEMPERATURE'
      SETPOINT=300.000
      INITIAL_STATE=.TRUE.
      XYZ=0.000,0.000,0.000
      /

! 14 voxels, resolution 0.049 m, in 0 s
&OBST ID='roof_0'
      XB=-1.496,1.496,-1.496,0.858,2.676,2.825
      SURF_ID='gypsum wall'
      /
&OBST ID='roof_1'
      XB=-1.496,1.447,0.856,0.907,2.676,2.825
      SURF_ID='gypsum wall'
      /
&OBST ID='roof_2'
      XB=-1.496,0.907,1.395,1.446,2.676,2.825
      SURF_ID='gypsum wall'
      /
&OBST ID='roof_3'
      XB=-1.496,1.005,1.297,1.348,2.676,2.825
      SURF_ID='gypsum wall'
      /
&OBST ID='roof_4'
      XB=-1.496,1.103,1.199,1.250,2.676,2.825
      SURF_ID='gypsum wall'
      /
&OBST ID='roof_5'
      XB=-1.496,0.956,1.346,1.397,2.676,2.825
      SURF_ID='gypsum wall'
      /
&OBST ID='roof_6'
      XB=-1.496,1.349,0.954,1.005,2.676,2.825
      SURF_ID='gypsum wall'
      /
&OBST ID='roof_7'
      XB=-1.496,1.201,1.101,1.152,2.676,2.825
      SURF_ID='gypsum wall'
      /
&OBST ID='roof_8'
      XB=-1.496,1.054,1.248,1.299,2.676,2.825
      SURF_ID='gypsum wall'
      /
&OBST ID='roof_9'
      XB=-1.496,1.152,1.150,1.201,2.676,2.825
      SURF_ID='gypsum wall'
      /
&OBST ID='roof_10'
      XB=-1.496,1.300,1.003,1.054,2.676,2.825
      SURF_ID='gypsum wall'
      /
&OBST ID='roof_11'
      XB=-1.496,1.251,1.052,1.103,2.676,2.825
      SURF_ID='gypsum wall'
      /
&OBST ID='roof_12'
      XB=-1.496,1.398,0.905,0.956,2.676,2.825
      SURF_ID='gypsum wall'
      /
&OBST ID='roof_13'
      XB=-1.496,0.858,1.444,1.495,2.676,2.825
      SURF_ID='gypsum wall'
      /
! 35 voxels, resolution 0.049 m, in 0 s
&OBST ID='tower_0'
      XB=1.964,2.162,1.132,1.183,0.001,2.699
      SURF_ID='gypsum wall'
      /
&OBST ID='tower_1'
      XB=1.474,1.721,0.789,0.840,0.001,2.699
      SURF_ID='gypsum wall'
      /
&OBST ID='tower_2'
      XB=2.062,2.260,1.524,1.575,0.001,2.699
      SURF_ID='gypsum wall'
      /
&OBST ID='tower_3'
      XB=2.013,2.162,1.720,1.820,0.001,2.699
      SURF_ID='gypsum wall'
      /
&OBST ID='tower_4'
      XB=0.739,0.937,1.524,1.575,0.001,2.699
      SURF_ID='gypsum wall'
      /
&OBST ID='tower_5'
      XB=1.964,2.162,1.818,1.869,0.001,2.699
      SURF_ID='gypsum wall'
      /
&OBST ID='tower_6'
      XB=1.719,1.966,0.936,0.987,0.001,2.699
      SURF_ID='gypsum wall'
      /
&OBST ID='tower_7'
      XB=1.915,2.113,1.867,1.918,0.001,2.699
      SURF_ID='gypsum wall'
      /
&OBST ID='tower_8'
      XB=1.082,1.476,2.063,2.114,0.001,2.699
      SURF_ID='gypsum wall'
      /
&OBST ID='tower_9'
      XB=1.131,1.868,2.112,2.163,0.001,2.699
      SURF_ID='gypsum wall'
      /
&OBST ID='tower_10'
      XB=0.739,0.888,1.475,1.526,0.001,2.699
      SURF_ID='gypsum wall'
      /
&OBST ID='tower_11'
      XB=1.033,1.280,2.014,2.065,0.001,2.699
      SURF_ID='gypsum wall'
      /
&OBST ID='tower_12'
      XB=1.278,1.721,2.161,2.212,0.001,2.699
      SURF_ID='gypsum wall'
      /
&OBST ID='tower_13'
      XB=1.866,2.064,1.034,1.085,0.001,2.699
      SURF_ID='gypsum wall'
      /
&OBST ID='tower_14'
      XB=1.915,2.113,1.083,1.134,0.001,2.699
      SURF_ID='gypsum wall'
      /
&OBST ID='tower_15'
      XB=1.719,1.966,2.014,2.065,0.001,2.699
      SURF_ID='gypsum wall'
      /
&OBST ID='tower_16'
      XB=1.474,1.868,0.838,0.889,0.001,2.699
      SURF_ID='gypsum wall'
      /
&OBST ID='tower_17'
      XB=1.425,1.574,2.210,2.261,0.001,2.699
      SURF_ID='gypsum wall'
      /
&OBST ID='tower_18'
      XB=1.523,1.917,2.063,2.114,0.001,2.699
      SURF_ID='gypsum wall'
      /
&OBST ID='tower_19'
      XB=1.474,1.574,0.740,0.791,0.001,2.699
      SURF_ID='gypsum wall'
      /
&OBST ID='tower_20'
      XB=1.817,2.015,0.985,1.036,0.001,2.699
      SURF_ID='gypsum wall'
      /
&OBST ID='tower_21'
      XB=1.866,2.064,1.916,1.967,0.001,2.699
      SURF_ID='gypsum wall'
      /
&OBST ID='tower_22'
      XB=2.062,2.211,1.573,1.722,0.001,2.699
      SURF_ID='gypsum wall'
      /
&OBST ID='tower_23'
      XB=0.837,1.035,1.818,1.869,0.001,2.699
      SURF_ID='gypsum wall'
      /
&OBST ID='tower_24'
      XB=2.062,2.211,1.279,1.428,0.001,2.699
      SURF_ID='gypsum wall'
      /
&OBST ID='tower_25'
      XB=0.886,1.084,1.867,1.918,0.001,2.699
      SURF_ID='gypsum wall'
      /
&OBST ID='tower_26'
      XB=0.984,1.182,1.965,2.016,0.001,2.699
      SURF_ID='gypsum wall'
      /
&OBST ID='tower_27'
      XB=1.523,1.917,0.887,0.938,0.001,2.699
      SURF_ID='gypsum wall'
      /
&OBST ID='tower_28'
      XB=2.111,2.260,1.475,1.526,0.001,2.699
      SURF_ID='gypsum wall'
      /
&OBST ID='tower_29'
      XB=0.935,1.133,1.916,1.967,0.001,2.699
      SURF_ID='gypsum wall'
      /
&OBST ID='tower_30'
      XB=2.013,2.162,1.181,1.281,0.001,2.699
      SURF_ID='gypsum wall'
      /
&OBST ID='tower_31'
      XB=1.817,2.015,1.965,2.016,0.001,2.699
      SURF_ID='gypsum wall'
      /
&OBST ID='tower_32'
      XB=2.062,2.260,1.426,1.477,0.001,2.699
      SURF_ID='gypsum wall'
      /
&OBST ID='tower_33'
      XB=0.837,0.986,1.720,1.820,0.001,2.699
      SURF_ID='gypsum wall'
      /
&OBST ID='tower_34'
      XB=0.788,0.937,1.573,1.722,0.001,2.699
      SURF_ID='gypsum wall'
      /
! 23 voxels, resolution 0.050 m, in 0 s
&OBST ID='tower roof_0'
      XB=0.774,2.226,1.474,1.676,2.674,2.776
      SURF_ID='gypsum wall'
      /
&OBST ID='tower roof_1'
      XB=0.824,2.176,1.674,1.876,2.674,2.776
      SURF_ID='gypsum wall'
      /
&OBST ID='tower roof_2'
      XB=1.074,1.926,2.074,2.126,2.674,2.776
      SURF_ID='gypsum wall'
      /
&OBST ID='tower roof_3'
      XB=1.474,1.676,0.774,0.826,2.674,2.776
      SURF_ID='gypsum wall'
      /
&OBST ID='tower roof_4'
      XB=1.024,2.176,1.224,1.276,2.674,2.776
      SURF_ID='gypsum wall'
      /
&OBST ID='tower roof_5'
      XB=0.974,2.176,1.274,1.326,2.674,2.776
      SURF_ID='gypsum wall'
      /
&OBST ID='tower roof_6'
      XB=1.274,2.026,0.974,1.026,2.674,2.776
      SURF_ID='gypsum wall'
      /
&OBST ID='tower roof_7'
      XB=0.824,2.226,1.424,1.476,2.674,2.776
      SURF_ID='gypsum wall'
      /
&OBST ID='tower roof_8'
      XB=0.924,2.076,1.924,1.976,2.674,2.776
      SURF_ID='gypsum wall'
      /
&OBST ID='tower roof_9'
      XB=0.974,2.026,1.974,2.026,2.674,2.776
      SURF_ID='gypsum wall'
      /
&OBST ID='tower roof_10'
      XB=0.874,2.226,1.374,1.426,2.674,2.776
      SURF_ID='gypsum wall'
      /
&OBST ID='tower roof_11'
      XB=1.324,1.676,2.174,2.226,2.674,2.776
      SURF_ID='gypsum wall'
      /
&OBST ID='tower roof_12'
      XB=1.124,2.176,1.124,1.176,2.674,2.776
      SURF_ID='gypsum wall'
      /
&OBST ID='tower roof_13'
      XB=1.074,2.176,1.174,1.226,2.674,2.776
      SURF_ID='gypsum wall'
      /
&OBST ID='tower roof_14'
      XB=1.324,1.976,0.924,0.976,2.674,2.776
      SURF_ID='gypsum wall'
      /
&OBST ID='tower roof_15'
      XB=1.224,2.076,1.024,1.076,2.674,2.776
      SURF_ID='gypsum wall'
      /
&OBST ID='tower roof_16'
      XB=1.124,1.876,2.124,2.176,2.674,2.776
      SURF_ID='gypsum wall'
      /
&OBST ID='tower roof_17'
      XB=1.174,2.126,1.074,1.126,2.674,2.776
      SURF_ID='gypsum wall'
      /
&OBST ID='tower roof_18'
      XB=1.424,1.876,0.824,0.876,2.674,2.776
      SURF_ID='gypsum wall'
      /
&OBST ID='tower roof_19'
      XB=1.374,1.926,0.874,0.926,2.674,2.776
      SURF_ID='gypsum wall'
      /
&OBST ID='tower roof_20'
      XB=0.924,2.226,1.324,1.376,2.674,2.776
      SURF_ID='gypsum wall'
      /
&OBST ID='tower roof_21'
      XB=1.024,1.976,2.024,2.076,2.674,2.776
      SURF_ID='gypsum wall'
      /
&OBST ID='tower roof_22'
      XB=0.874,2.126,1.874,1.926,2.674,2.776
      SURF_ID='gypsum wall'
      /
&HOLE ID='tower roof hole'
      XB=1.354,1.854,1.352,1.852,2.682,2.829
      /
! 9 voxels, resolution 0.049 m, in 0 s
&OBST ID='wall_0'
      XB=-1.496,1.495,-1.496,-1.347,0.001,2.698
      SURF_ID='gypsum wall'
      /
&OBST ID='wall_1'
      XB=-0.761,-0.024,1.347,1.496,0.001,0.983
      SURF_ID='gypsum wall'
      /
&OBST ID='wall_2'
      XB=-0.761,-0.024,1.347,1.496,2.010,2.698
      SURF_ID='gypsum wall'
      /
&OBST ID='wall_3'
      XB=-0.026,0.858,1.347,1.496,0.001,2.698
      SURF_ID='gypsum wall'
      /
&OBST ID='wall_4'
      XB=-1.496,-0.759,1.347,1.496,0.001,2.698
      SURF_ID='gypsum wall'
      /
&OBST ID='wall_5'
      XB=1.346,1.495,-0.025,0.859,0.001,2.698
      SURF_ID='gypsum wall'
      /
&OBST ID='wall_6'
      XB=1.346,1.495,-0.760,-0.023,2.010,2.698
      SURF_ID='gypsum wall'
      /
&OBST ID='wall_7'
      XB=-1.496,-1.347,-1.349,1.349,0.001,2.698
      SURF_ID='gypsum wall'
      /
&OBST ID='wall_8'
      XB=1.346,1.495,-1.349,-0.758,0.001,2.698
      SURF_ID='gypsum wall'
      /

! -- 03 Output: Group of namelists that define the output
! 3 edges
&DEVC ID='bd_0'
      XB=-1.500,-1.500,-1.500,1.000,2.400,2.400
      FYI='beam detector'
      QUANTITY='PATH OBSCURATION'
      SETPOINT=0.330
      /
&DEVC ID='bd_1'
      XB=-1.500,1.000,-1.500,-1.500,2.400,2.400
      FYI='beam detector'
      QUANTITY='PATH OBSCURATION'
      SETPOINT=0.330
      /
&DEVC ID='bd_2'
      XB=-1.500,1.900,-1.500,1.900,2.400,2.400
      FYI='beam detector'
      QUANTITY='PATH OBSCURATION'
      SETPOINT=0.330
      /
! 2 faces
&SLCF ID='slcf temp_0'
      XB=-1.000,1.000,0.000,0.000,-1.000,1.000
      QUANTITY='TEMPERATURE'
      VECTOR=.TRUE.
      /
&SLCF ID='slcf temp_1'
      XB=0.000,0.000,-1.000,1.000,-1.000,1.000
      QUANTITY='TEMPERATURE'
      VECTOR=.TRUE.
      /
! 2 faces
&SLCF ID='slcf visibility_0'
      XB=-1.000,1.000,0.000,0.000,-1.000,1.000
      QUANTITY='VISIBILITY'
      /
&SLCF ID='slcf visibility_1'
      XB=0.000,0.000,-1.000,1.000,-1.000,1.000
      QUANTITY='VISIBILITY'
      /
! 13 vertices
&DEVC ID='tc+0.100'
      XYZ=-1.000,1.000,0.100
      FYI='serie of thermocouples'
      QUANTITY='THERMOCOUPLE'
      /
&DEVC ID='tc+0.300'
      XYZ=-1.000,1.000,0.300
      FYI='serie of thermocouples'
      QUANTITY='THERMOCOUPLE'
      /
&DEVC ID='tc+0.500'
      XYZ=-1.000,1.000,0.500
      FYI='serie of thermocouples'
      QUANTITY='THERMOCOUPLE'
      /
&DEVC ID='tc+0.700'
      XYZ=-1.000,1.000,0.700
      FYI='serie of thermocouples'
      QUANTITY='THERMOCOUPLE'
      /
&DEVC ID='tc+0.900'
      XYZ=-1.000,1.000,0.900
      FYI='serie of thermocouples'
      QUANTITY='THERMOCOUPLE'
      /
&DEVC ID='tc+1.100'
      XYZ=-1.000,1.000,1.100
      FYI='serie of thermocouples'
      QUANTITY='THERMOCOUPLE'
      /
&DEVC ID='tc+1.300'
      XYZ=-1.000,1.000,1.300
      FYI='serie of thermocouples'
      QUANTITY='THERMOCOUPLE'
      /
&DEVC ID='tc+1.500'
      XYZ=-1.000,1.000,1.500
      FYI='serie of thermocouples'
      QUANTITY='THERMOCOUPLE'
      /
&DEVC ID='tc+1.700'
      XYZ=-1.000,1.000,1.700
      FYI='serie of thermocouples'
      QUANTITY='THERMOCOUPLE'
      /
&DEVC ID='tc+1.900'
      XYZ=-1.000,1.000,1.900
      FYI='serie of thermocouples'
      QUANTITY='THERMOCOUPLE'
      /
&DEVC ID='tc+2.100'
      XYZ=-1.000,1.000,2.100
      FYI='serie of thermocouples'
      QUANTITY='THERMOCOUPLE'
      /
&DEVC ID='tc+2.300'
      XYZ=-1.000,1.000,2.300
      FYI='serie of thermocouples'
      QUANTITY='THERMOCOUPLE'
      /
&DEVC ID='tc+2.500'
      XYZ=-1.000,1.000,2.500
      FYI='serie of thermocouples'
      QUANTITY='THERMOCOUPLE'
      /



&TAIL /
! Generated in 0 s.