&REAC FUEL='Ita CoPI civ pre-fo',
      FORMULA='C2H4O1',
      SOOT_YIELD=0.07,
      CO_YIELD=0.10,
      HEAT_OF_COMBUSTION=20000.,
      IDEAL=.FALSE.,
      FYI='Codice di prevenzione incendi, tab. M.2-2, focolare predefinito per attività civili, pre-flashover'
      /
