&REAC FUEL='NZ C-VM2 post-fo',
      FORMULA='C2H4O1',
      SOOT_YIELD=0.14,
      CO_YIELD=0.40,
      HEAT_OF_COMBUSTION=20000.,
      IDEAL=.FALSE.,
      FYI='NZ C-VM2, Table 2.1, post-flashover design fire'
      /
